[0;36m[13:48:51] Starting: pattern_20_upwind[0m
[0;36m[13:48:51] Running simulation: pattern_20_upwind[0m
/*---------------------------------------------------------------------------*\
  =========                 |
  \\      /  F ield         | OpenFOAM: The Open Source CFD Toolbox
   \\    /   O peration     | Website:  https://openfoam.org
    \\  /    A nd           | Version:  10
     \\/     M anipulation  |
\*---------------------------------------------------------------------------*/
Build  : 10-c4cf895ad8fa
Exec   : scalarTransportFoam
Date   : Sep 08 2025
Time   : 04:48:55
Host   : "a627a9a37d55"
PID    : 297
I/O    : uncollated
Case   : /work/simulation_results_90cases/pattern_20_upwind
nProcs : 1
sigFpe : Enabling floating point exception trapping (FOAM_SIGFPE).
fileModificationChecking : Monitoring run-time modified files using timeStampMaster (fileModificationSkew 10)
allowSystemOperations : Allowing user-supplied system call operations

// * * * * * * * * * * * * * * * * * * * * * * * * * * * * * * * * * * * * * //
Create time

Create mesh for time = 0


SIMPLE: No convergence criteria found

Reading field T

Reading field U

Reading physicalProperties

Reading diffusivity DT

Reading/calculating face flux field phi

--> FOAM Warning : Creating fvModels from "system/fvOptions" rather than constant/fvModels
Selecting finite volume model type semiImplicitSource
    Name: scent_source_upwind
    - selecting cells using points
--> FOAM Warning : 
    From function void Foam::fvCellSet::setCells()
    in file fvMesh/fvCellSet/fvCellSet.C at line 75
    Unable to find owner cell for point (5 7.5 1)
    - selected 0 cell(s) with volume 0
--> FOAM Warning : Creating fvConstraints from "system/fvOptions"

No fvConstraints present

Calculating scalar transport

Courant Number mean: 0.00149787 max: 0.0189424
Time = 0.005s

smoothSolver:  Solving for T, Initial residual = 1, Final residual = 2.02547e-09, No Iterations 1
Time = 0.01s

smoothSolver:  Solving for T, Initial residual = 0.305494, Final residual = 6.19682e-10, No Iterations 1
Time = 0.015s

smoothSolver:  Solving for T, Initial residual = 0.180415, Final residual = 3.66503e-10, No Iterations 1
Time = 0.02s

smoothSolver:  Solving for T, Initial residual = 0.128071, Final residual = 2.60551e-10, No Iterations 1
Time = 0.025s

smoothSolver:  Solving for T, Initial residual = 0.0993086, Final residual = 2.02334e-10, No Iterations 1
Time = 0.03s

smoothSolver:  Solving for T, Initial residual = 0.0811223, Final residual = 1.65523e-10, No Iterations 1
Time = 0.035s

smoothSolver:  Solving for T, Initial residual = 0.0685846, Final residual = 1.40146e-10, No Iterations 1
Time = 0.04s

smoothSolver:  Solving for T, Initial residual = 0.0594176, Final residual = 1.21591e-10, No Iterations 1
Time = 0.045s

smoothSolver:  Solving for T, Initial residual = 0.0524231, Final residual = 1.07435e-10, No Iterations 1
Time = 0.05s

smoothSolver:  Solving for T, Initial residual = 0.0469106, Final residual = 9.62775e-11, No Iterations 1
Time = 0.055s

smoothSolver:  Solving for T, Initial residual = 0.0424373, Final residual = 8.72234e-11, No Iterations 1
Time = 0.06s

smoothSolver:  Solving for T, Initial residual = 0.0387453, Final residual = 7.97506e-11, No Iterations 1
Time = 0.065s

smoothSolver:  Solving for T, Initial residual = 0.0356325, Final residual = 7.345e-11, No Iterations 1
Time = 0.07s

smoothSolver:  Solving for T, Initial residual = 0.0329822, Final residual = 6.80853e-11, No Iterations 1
Time = 0.075s

smoothSolver:  Solving for T, Initial residual = 0.0306989, Final residual = 6.34635e-11, No Iterations 1
Time = 0.08s

smoothSolver:  Solving for T, Initial residual = 0.0287113, Final residual = 5.94403e-11, No Iterations 1
Time = 0.085s

smoothSolver:  Solving for T, Initial residual = 0.0269654, Final residual = 5.59064e-11, No Iterations 1
Time = 0.09s

smoothSolver:  Solving for T, Initial residual = 0.0254198, Final residual = 5.27778e-11, No Iterations 1
Time = 0.095s

smoothSolver:  Solving for T, Initial residual = 0.0240418, Final residual = 4.99885e-11, No Iterations 1
Time = 0.1s

smoothSolver:  Solving for T, Initial residual = 0.0228055, Final residual = 4.74861e-11, No Iterations 1
Time = 0.105s

smoothSolver:  Solving for T, Initial residual = 0.0216902, Final residual = 4.52285e-11, No Iterations 1
Time = 0.11s

smoothSolver:  Solving for T, Initial residual = 0.020679, Final residual = 4.31815e-11, No Iterations 1
Time = 0.115s

smoothSolver:  Solving for T, Initial residual = 0.0197578, Final residual = 4.1317e-11, No Iterations 1
Time = 0.12s

smoothSolver:  Solving for T, Initial residual = 0.0189153, Final residual = 3.96115e-11, No Iterations 1
Time = 0.125s

smoothSolver:  Solving for T, Initial residual = 0.0181417, Final residual = 3.80456e-11, No Iterations 1
Time = 0.13s

smoothSolver:  Solving for T, Initial residual = 0.0174289, Final residual = 3.66029e-11, No Iterations 1
Time = 0.135s

smoothSolver:  Solving for T, Initial residual = 0.0167701, Final residual = 3.52692e-11, No Iterations 1
Time = 0.14s

smoothSolver:  Solving for T, Initial residual = 0.0161592, Final residual = 3.40328e-11, No Iterations 1
Time = 0.145s

smoothSolver:  Solving for T, Initial residual = 0.0155913, Final residual = 3.28833e-11, No Iterations 1
Time = 0.15s

smoothSolver:  Solving for T, Initial residual = 0.0150621, Final residual = 3.18119e-11, No Iterations 1
Time = 0.155s

smoothSolver:  Solving for T, Initial residual = 0.0145675, Final residual = 3.0811e-11, No Iterations 1
Time = 0.16s

smoothSolver:  Solving for T, Initial residual = 0.0141045, Final residual = 2.98737e-11, No Iterations 1
Time = 0.165s

smoothSolver:  Solving for T, Initial residual = 0.01367, Final residual = 2.89942e-11, No Iterations 1
Time = 0.17s

smoothSolver:  Solving for T, Initial residual = 0.0132615, Final residual = 2.81673e-11, No Iterations 1
Time = 0.175s

smoothSolver:  Solving for T, Initial residual = 0.0128767, Final residual = 2.73884e-11, No Iterations 1
Time = 0.18s

smoothSolver:  Solving for T, Initial residual = 0.0125137, Final residual = 2.66536e-11, No Iterations 1
Time = 0.185s

smoothSolver:  Solving for T, Initial residual = 0.0121705, Final residual = 2.5959e-11, No Iterations 1
Time = 0.19s

smoothSolver:  Solving for T, Initial residual = 0.0118458, Final residual = 2.53016e-11, No Iterations 1
Time = 0.195s

smoothSolver:  Solving for T, Initial residual = 0.0115379, Final residual = 2.46784e-11, No Iterations 1
Time = 0.2s

smoothSolver:  Solving for T, Initial residual = 0.0112456, Final residual = 2.40868e-11, No Iterations 1
Time = 0.205s

smoothSolver:  Solving for T, Initial residual = 0.0109678, Final residual = 2.35244e-11, No Iterations 1
Time = 0.21s

smoothSolver:  Solving for T, Initial residual = 0.0107034, Final residual = 2.29893e-11, No Iterations 1
Time = 0.215s

smoothSolver:  Solving for T, Initial residual = 0.0104515, Final residual = 2.24793e-11, No Iterations 1
Time = 0.22s

smoothSolver:  Solving for T, Initial residual = 0.0102111, Final residual = 2.19929e-11, No Iterations 1
Time = 0.225s

smoothSolver:  Solving for T, Initial residual = 0.00998162, Final residual = 2.15283e-11, No Iterations 1
Time = 0.23s

smoothSolver:  Solving for T, Initial residual = 0.00976222, Final residual = 2.10842e-11, No Iterations 1
Time = 0.235s

smoothSolver:  Solving for T, Initial residual = 0.00955227, Final residual = 2.06592e-11, No Iterations 1
Time = 0.24s

smoothSolver:  Solving for T, Initial residual = 0.00935118, Final residual = 2.02522e-11, No Iterations 1
Time = 0.245s

smoothSolver:  Solving for T, Initial residual = 0.00915839, Final residual = 1.9862e-11, No Iterations 1
Time = 0.25s

smoothSolver:  Solving for T, Initial residual = 0.00897341, Final residual = 1.94876e-11, No Iterations 1
Time = 0.255s

smoothSolver:  Solving for T, Initial residual = 0.00879576, Final residual = 1.9128e-11, No Iterations 1
Time = 0.26s

smoothSolver:  Solving for T, Initial residual = 0.00862503, Final residual = 1.87824e-11, No Iterations 1
Time = 0.265s

smoothSolver:  Solving for T, Initial residual = 0.00846082, Final residual = 1.845e-11, No Iterations 1
Time = 0.27s

smoothSolver:  Solving for T, Initial residual = 0.00830275, Final residual = 1.81301e-11, No Iterations 1
Time = 0.275s

smoothSolver:  Solving for T, Initial residual = 0.00815049, Final residual = 1.78219e-11, No Iterations 1
Time = 0.28s

smoothSolver:  Solving for T, Initial residual = 0.00800373, Final residual = 1.75249e-11, No Iterations 1
Time = 0.285s

smoothSolver:  Solving for T, Initial residual = 0.00786218, Final residual = 1.72384e-11, No Iterations 1
Time = 0.29s

smoothSolver:  Solving for T, Initial residual = 0.00772556, Final residual = 1.69618e-11, No Iterations 1
Time = 0.295s

smoothSolver:  Solving for T, Initial residual = 0.00759362, Final residual = 1.66948e-11, No Iterations 1
Time = 0.3s

smoothSolver:  Solving for T, Initial residual = 0.00746612, Final residual = 1.64367e-11, No Iterations 1
Time = 0.305s

smoothSolver:  Solving for T, Initial residual = 0.00734284, Final residual = 1.61872e-11, No Iterations 1
Time = 0.31s

smoothSolver:  Solving for T, Initial residual = 0.00722358, Final residual = 1.59459e-11, No Iterations 1
Time = 0.315s

smoothSolver:  Solving for T, Initial residual = 0.00710815, Final residual = 1.57122e-11, No Iterations 1
Time = 0.32s

smoothSolver:  Solving for T, Initial residual = 0.00699635, Final residual = 1.5486e-11, No Iterations 1
Time = 0.325s

smoothSolver:  Solving for T, Initial residual = 0.00688803, Final residual = 1.52667e-11, No Iterations 1
Time = 0.33s

smoothSolver:  Solving for T, Initial residual = 0.00678303, Final residual = 1.50542e-11, No Iterations 1
Time = 0.335s

smoothSolver:  Solving for T, Initial residual = 0.00668119, Final residual = 1.48481e-11, No Iterations 1
Time = 0.34s

smoothSolver:  Solving for T, Initial residual = 0.00658237, Final residual = 1.46481e-11, No Iterations 1
Time = 0.345s

smoothSolver:  Solving for T, Initial residual = 0.00648644, Final residual = 1.4454e-11, No Iterations 1
Time = 0.35s

smoothSolver:  Solving for T, Initial residual = 0.00639328, Final residual = 1.42654e-11, No Iterations 1
Time = 0.355s

smoothSolver:  Solving for T, Initial residual = 0.00630277, Final residual = 1.40823e-11, No Iterations 1
Time = 0.36s

smoothSolver:  Solving for T, Initial residual = 0.00621479, Final residual = 1.39042e-11, No Iterations 1
Time = 0.365s

smoothSolver:  Solving for T, Initial residual = 0.00612925, Final residual = 1.37311e-11, No Iterations 1
Time = 0.37s

smoothSolver:  Solving for T, Initial residual = 0.00604604, Final residual = 1.35627e-11, No Iterations 1
Time = 0.375s

smoothSolver:  Solving for T, Initial residual = 0.00596507, Final residual = 1.33989e-11, No Iterations 1
Time = 0.38s

smoothSolver:  Solving for T, Initial residual = 0.00588625, Final residual = 1.32394e-11, No Iterations 1
Time = 0.385s

smoothSolver:  Solving for T, Initial residual = 0.00580949, Final residual = 1.30841e-11, No Iterations 1
Time = 0.39s

smoothSolver:  Solving for T, Initial residual = 0.00573472, Final residual = 1.29328e-11, No Iterations 1
Time = 0.395s

smoothSolver:  Solving for T, Initial residual = 0.00566186, Final residual = 1.27853e-11, No Iterations 1
Time = 0.4s

smoothSolver:  Solving for T, Initial residual = 0.00559083, Final residual = 1.26416e-11, No Iterations 1
Time = 0.405s

smoothSolver:  Solving for T, Initial residual = 0.00552158, Final residual = 1.25015e-11, No Iterations 1
Time = 0.41s

smoothSolver:  Solving for T, Initial residual = 0.00545403, Final residual = 1.23648e-11, No Iterations 1
Time = 0.415s

smoothSolver:  Solving for T, Initial residual = 0.00538811, Final residual = 1.22314e-11, No Iterations 1
Time = 0.42s

smoothSolver:  Solving for T, Initial residual = 0.00532379, Final residual = 1.21013e-11, No Iterations 1
Time = 0.425s

smoothSolver:  Solving for T, Initial residual = 0.00526099, Final residual = 1.19742e-11, No Iterations 1
Time = 0.43s

smoothSolver:  Solving for T, Initial residual = 0.00519966, Final residual = 1.18501e-11, No Iterations 1
Time = 0.435s

smoothSolver:  Solving for T, Initial residual = 0.00513975, Final residual = 1.17289e-11, No Iterations 1
Time = 0.44s

smoothSolver:  Solving for T, Initial residual = 0.00508121, Final residual = 1.16105e-11, No Iterations 1
Time = 0.445s

smoothSolver:  Solving for T, Initial residual = 0.00502401, Final residual = 1.14948e-11, No Iterations 1
Time = 0.45s

smoothSolver:  Solving for T, Initial residual = 0.00496808, Final residual = 1.13816e-11, No Iterations 1
Time = 0.455s

smoothSolver:  Solving for T, Initial residual = 0.00491339, Final residual = 1.1271e-11, No Iterations 1
Time = 0.46s

smoothSolver:  Solving for T, Initial residual = 0.0048599, Final residual = 1.11628e-11, No Iterations 1
Time = 0.465s

smoothSolver:  Solving for T, Initial residual = 0.00480758, Final residual = 1.10569e-11, No Iterations 1
Time = 0.47s

smoothSolver:  Solving for T, Initial residual = 0.00475637, Final residual = 1.09534e-11, No Iterations 1
Time = 0.475s

smoothSolver:  Solving for T, Initial residual = 0.00470625, Final residual = 1.0852e-11, No Iterations 1
Time = 0.48s

smoothSolver:  Solving for T, Initial residual = 0.00465718, Final residual = 1.07527e-11, No Iterations 1
Time = 0.485s

smoothSolver:  Solving for T, Initial residual = 0.00460914, Final residual = 1.06556e-11, No Iterations 1
Time = 0.49s

smoothSolver:  Solving for T, Initial residual = 0.00456208, Final residual = 1.05604e-11, No Iterations 1
Time = 0.495s

smoothSolver:  Solving for T, Initial residual = 0.00451598, Final residual = 1.04672e-11, No Iterations 1
Time = 0.5s

smoothSolver:  Solving for T, Initial residual = 0.00447081, Final residual = 1.03758e-11, No Iterations 1
Time = 0.505s

smoothSolver:  Solving for T, Initial residual = 0.00442654, Final residual = 1.02863e-11, No Iterations 1
Time = 0.51s

smoothSolver:  Solving for T, Initial residual = 0.00438314, Final residual = 1.01985e-11, No Iterations 1
Time = 0.515s

smoothSolver:  Solving for T, Initial residual = 0.0043406, Final residual = 1.01125e-11, No Iterations 1
Time = 0.52s

smoothSolver:  Solving for T, Initial residual = 0.00429888, Final residual = 1.00281e-11, No Iterations 1
Time = 0.525s

smoothSolver:  Solving for T, Initial residual = 0.00425796, Final residual = 9.9454e-12, No Iterations 1
Time = 0.53s

smoothSolver:  Solving for T, Initial residual = 0.00421782, Final residual = 9.86424e-12, No Iterations 1
Time = 0.535s

smoothSolver:  Solving for T, Initial residual = 0.00417844, Final residual = 9.78461e-12, No Iterations 1
Time = 0.54s

smoothSolver:  Solving for T, Initial residual = 0.00413979, Final residual = 9.70647e-12, No Iterations 1
Time = 0.545s

smoothSolver:  Solving for T, Initial residual = 0.00410185, Final residual = 9.62978e-12, No Iterations 1
Time = 0.55s

smoothSolver:  Solving for T, Initial residual = 0.00406462, Final residual = 9.55451e-12, No Iterations 1
Time = 0.555s

smoothSolver:  Solving for T, Initial residual = 0.00402805, Final residual = 9.48059e-12, No Iterations 1
Time = 0.56s

smoothSolver:  Solving for T, Initial residual = 0.00399215, Final residual = 9.40802e-12, No Iterations 1
Time = 0.565s

smoothSolver:  Solving for T, Initial residual = 0.00395689, Final residual = 9.33675e-12, No Iterations 1
Time = 0.57s

smoothSolver:  Solving for T, Initial residual = 0.00392225, Final residual = 9.26674e-12, No Iterations 1
Time = 0.575s

smoothSolver:  Solving for T, Initial residual = 0.00388821, Final residual = 9.19795e-12, No Iterations 1
Time = 0.58s

smoothSolver:  Solving for T, Initial residual = 0.00385477, Final residual = 9.13038e-12, No Iterations 1
Time = 0.585s

smoothSolver:  Solving for T, Initial residual = 0.00382191, Final residual = 9.06396e-12, No Iterations 1
Time = 0.59s

smoothSolver:  Solving for T, Initial residual = 0.00378961, Final residual = 8.99869e-12, No Iterations 1
Time = 0.595s

smoothSolver:  Solving for T, Initial residual = 0.00375785, Final residual = 8.93452e-12, No Iterations 1
Time = 0.6s

smoothSolver:  Solving for T, Initial residual = 0.00372663, Final residual = 8.87144e-12, No Iterations 1
Time = 0.605s

smoothSolver:  Solving for T, Initial residual = 0.00369593, Final residual = 8.80942e-12, No Iterations 1
Time = 0.61s

smoothSolver:  Solving for T, Initial residual = 0.00366573, Final residual = 8.74841e-12, No Iterations 1
Time = 0.615s

smoothSolver:  Solving for T, Initial residual = 0.00363603, Final residual = 8.68842e-12, No Iterations 1
Time = 0.62s

smoothSolver:  Solving for T, Initial residual = 0.00360682, Final residual = 8.6294e-12, No Iterations 1
Time = 0.625s

smoothSolver:  Solving for T, Initial residual = 0.00357807, Final residual = 8.57134e-12, No Iterations 1
Time = 0.63s

smoothSolver:  Solving for T, Initial residual = 0.00354979, Final residual = 8.51422e-12, No Iterations 1
Time = 0.635s

smoothSolver:  Solving for T, Initial residual = 0.00352195, Final residual = 8.458e-12, No Iterations 1
Time = 0.64s

smoothSolver:  Solving for T, Initial residual = 0.00349456, Final residual = 8.40268e-12, No Iterations 1
Time = 0.645s

smoothSolver:  Solving for T, Initial residual = 0.00346759, Final residual = 8.34822e-12, No Iterations 1
Time = 0.65s

smoothSolver:  Solving for T, Initial residual = 0.00344104, Final residual = 8.29461e-12, No Iterations 1
Time = 0.655s

smoothSolver:  Solving for T, Initial residual = 0.0034149, Final residual = 8.24183e-12, No Iterations 1
Time = 0.66s

smoothSolver:  Solving for T, Initial residual = 0.00338915, Final residual = 8.18987e-12, No Iterations 1
Time = 0.665s

smoothSolver:  Solving for T, Initial residual = 0.0033638, Final residual = 8.13869e-12, No Iterations 1
Time = 0.67s

smoothSolver:  Solving for T, Initial residual = 0.00333883, Final residual = 8.08829e-12, No Iterations 1
Time = 0.675s

smoothSolver:  Solving for T, Initial residual = 0.00331423, Final residual = 8.03864e-12, No Iterations 1
Time = 0.68s

smoothSolver:  Solving for T, Initial residual = 0.00329, Final residual = 7.98974e-12, No Iterations 1
Time = 0.685s

smoothSolver:  Solving for T, Initial residual = 0.00326613, Final residual = 7.94157e-12, No Iterations 1
Time = 0.69s

smoothSolver:  Solving for T, Initial residual = 0.0032426, Final residual = 7.89409e-12, No Iterations 1
Time = 0.695s

smoothSolver:  Solving for T, Initial residual = 0.00321942, Final residual = 7.84732e-12, No Iterations 1
Time = 0.7s

smoothSolver:  Solving for T, Initial residual = 0.00319656, Final residual = 7.80122e-12, No Iterations 1
Time = 0.705s

smoothSolver:  Solving for T, Initial residual = 0.00317404, Final residual = 7.75578e-12, No Iterations 1
Time = 0.71s

smoothSolver:  Solving for T, Initial residual = 0.00315184, Final residual = 7.711e-12, No Iterations 1
Time = 0.715s

smoothSolver:  Solving for T, Initial residual = 0.00312995, Final residual = 7.66685e-12, No Iterations 1
Time = 0.72s

smoothSolver:  Solving for T, Initial residual = 0.00310836, Final residual = 7.62332e-12, No Iterations 1
Time = 0.725s

smoothSolver:  Solving for T, Initial residual = 0.00308708, Final residual = 7.5804e-12, No Iterations 1
Time = 0.73s

smoothSolver:  Solving for T, Initial residual = 0.00306609, Final residual = 7.53809e-12, No Iterations 1
Time = 0.735s

smoothSolver:  Solving for T, Initial residual = 0.00304539, Final residual = 7.49636e-12, No Iterations 1
Time = 0.74s

smoothSolver:  Solving for T, Initial residual = 0.00302497, Final residual = 7.4552e-12, No Iterations 1
Time = 0.745s

smoothSolver:  Solving for T, Initial residual = 0.00300483, Final residual = 7.4146e-12, No Iterations 1
Time = 0.75s

smoothSolver:  Solving for T, Initial residual = 0.00298496, Final residual = 7.37455e-12, No Iterations 1
Time = 0.755s

smoothSolver:  Solving for T, Initial residual = 0.00296535, Final residual = 7.33505e-12, No Iterations 1
Time = 0.76s

smoothSolver:  Solving for T, Initial residual = 0.00294601, Final residual = 7.29606e-12, No Iterations 1
Time = 0.765s

smoothSolver:  Solving for T, Initial residual = 0.00292692, Final residual = 7.25761e-12, No Iterations 1
Time = 0.77s

smoothSolver:  Solving for T, Initial residual = 0.00290808, Final residual = 7.21966e-12, No Iterations 1
Time = 0.775s

smoothSolver:  Solving for T, Initial residual = 0.00288948, Final residual = 7.18221e-12, No Iterations 1
Time = 0.78s

smoothSolver:  Solving for T, Initial residual = 0.00287113, Final residual = 7.14524e-12, No Iterations 1
Time = 0.785s

smoothSolver:  Solving for T, Initial residual = 0.00285301, Final residual = 7.10876e-12, No Iterations 1
Time = 0.79s

smoothSolver:  Solving for T, Initial residual = 0.00283512, Final residual = 7.07275e-12, No Iterations 1
Time = 0.795s

smoothSolver:  Solving for T, Initial residual = 0.00281746, Final residual = 7.0372e-12, No Iterations 1
Time = 0.8s

smoothSolver:  Solving for T, Initial residual = 0.00280003, Final residual = 7.0021e-12, No Iterations 1
Time = 0.805s

smoothSolver:  Solving for T, Initial residual = 0.00278281, Final residual = 6.96745e-12, No Iterations 1
Time = 0.81s

smoothSolver:  Solving for T, Initial residual = 0.00276581, Final residual = 6.93324e-12, No Iterations 1
Time = 0.815s

smoothSolver:  Solving for T, Initial residual = 0.00274901, Final residual = 6.89946e-12, No Iterations 1
Time = 0.82s

smoothSolver:  Solving for T, Initial residual = 0.00273243, Final residual = 6.86609e-12, No Iterations 1
Time = 0.825s

smoothSolver:  Solving for T, Initial residual = 0.00271605, Final residual = 6.83314e-12, No Iterations 1
Time = 0.83s

smoothSolver:  Solving for T, Initial residual = 0.00269986, Final residual = 6.80059e-12, No Iterations 1
Time = 0.835s

smoothSolver:  Solving for T, Initial residual = 0.00268388, Final residual = 6.76844e-12, No Iterations 1
Time = 0.84s

smoothSolver:  Solving for T, Initial residual = 0.00266808, Final residual = 6.73669e-12, No Iterations 1
Time = 0.845s

smoothSolver:  Solving for T, Initial residual = 0.00265247, Final residual = 6.70532e-12, No Iterations 1
Time = 0.85s

smoothSolver:  Solving for T, Initial residual = 0.00263705, Final residual = 6.67432e-12, No Iterations 1
Time = 0.855s

smoothSolver:  Solving for T, Initial residual = 0.00262181, Final residual = 6.64371e-12, No Iterations 1
Time = 0.86s

smoothSolver:  Solving for T, Initial residual = 0.00260675, Final residual = 6.61345e-12, No Iterations 1
Time = 0.865s

smoothSolver:  Solving for T, Initial residual = 0.00259187, Final residual = 6.58355e-12, No Iterations 1
Time = 0.87s

smoothSolver:  Solving for T, Initial residual = 0.00257716, Final residual = 6.554e-12, No Iterations 1
Time = 0.875s

smoothSolver:  Solving for T, Initial residual = 0.00256262, Final residual = 6.5248e-12, No Iterations 1
Time = 0.88s

smoothSolver:  Solving for T, Initial residual = 0.00254824, Final residual = 6.49595e-12, No Iterations 1
Time = 0.885s

smoothSolver:  Solving for T, Initial residual = 0.00253403, Final residual = 6.46742e-12, No Iterations 1
Time = 0.89s

smoothSolver:  Solving for T, Initial residual = 0.00251998, Final residual = 6.43922e-12, No Iterations 1
Time = 0.895s

smoothSolver:  Solving for T, Initial residual = 0.00250609, Final residual = 6.41135e-12, No Iterations 1
Time = 0.9s

smoothSolver:  Solving for T, Initial residual = 0.00249236, Final residual = 6.38379e-12, No Iterations 1
Time = 0.905s

smoothSolver:  Solving for T, Initial residual = 0.00247878, Final residual = 6.35655e-12, No Iterations 1
Time = 0.91s

smoothSolver:  Solving for T, Initial residual = 0.00246535, Final residual = 6.32962e-12, No Iterations 1
Time = 0.915s

smoothSolver:  Solving for T, Initial residual = 0.00245206, Final residual = 6.30297e-12, No Iterations 1
Time = 0.92s

smoothSolver:  Solving for T, Initial residual = 0.00243892, Final residual = 6.27661e-12, No Iterations 1
Time = 0.925s

smoothSolver:  Solving for T, Initial residual = 0.00242587, Final residual = 6.25044e-12, No Iterations 1
Time = 0.93s

smoothSolver:  Solving for T, Initial residual = 0.00241292, Final residual = 6.22442e-12, No Iterations 1
Time = 0.935s

smoothSolver:  Solving for T, Initial residual = 0.00240002, Final residual = 6.19848e-12, No Iterations 1
Time = 0.94s

smoothSolver:  Solving for T, Initial residual = 0.00238725, Final residual = 6.17278e-12, No Iterations 1
Time = 0.945s

smoothSolver:  Solving for T, Initial residual = 0.00237461, Final residual = 6.14734e-12, No Iterations 1
Time = 0.95s

smoothSolver:  Solving for T, Initial residual = 0.0023621, Final residual = 6.12218e-12, No Iterations 1
Time = 0.955s

smoothSolver:  Solving for T, Initial residual = 0.00234972, Final residual = 6.09727e-12, No Iterations 1
Time = 0.96s

smoothSolver:  Solving for T, Initial residual = 0.00233747, Final residual = 6.07263e-12, No Iterations 1
Time = 0.965s

smoothSolver:  Solving for T, Initial residual = 0.00232534, Final residual = 6.04824e-12, No Iterations 1
Time = 0.97s

smoothSolver:  Solving for T, Initial residual = 0.00231334, Final residual = 6.02411e-12, No Iterations 1
Time = 0.975s

smoothSolver:  Solving for T, Initial residual = 0.00230146, Final residual = 6.00023e-12, No Iterations 1
Time = 0.98s

smoothSolver:  Solving for T, Initial residual = 0.0022897, Final residual = 5.97659e-12, No Iterations 1
Time = 0.985s

smoothSolver:  Solving for T, Initial residual = 0.00227806, Final residual = 5.95319e-12, No Iterations 1
Time = 0.99s

smoothSolver:  Solving for T, Initial residual = 0.00226654, Final residual = 5.93004e-12, No Iterations 1
Time = 0.995s

smoothSolver:  Solving for T, Initial residual = 0.00225514, Final residual = 5.90712e-12, No Iterations 1
Time = 1s

smoothSolver:  Solving for T, Initial residual = 0.00224384, Final residual = 5.88444e-12, No Iterations 1
Time = 1.005s

smoothSolver:  Solving for T, Initial residual = 0.00223267, Final residual = 5.86199e-12, No Iterations 1
Time = 1.01s

smoothSolver:  Solving for T, Initial residual = 0.0022216, Final residual = 5.83976e-12, No Iterations 1
Time = 1.015s

smoothSolver:  Solving for T, Initial residual = 0.00221064, Final residual = 5.81776e-12, No Iterations 1
Time = 1.02s

smoothSolver:  Solving for T, Initial residual = 0.00219979, Final residual = 5.79598e-12, No Iterations 1
Time = 1.025s

smoothSolver:  Solving for T, Initial residual = 0.00218905, Final residual = 5.77442e-12, No Iterations 1
Time = 1.03s

smoothSolver:  Solving for T, Initial residual = 0.00217841, Final residual = 5.75307e-12, No Iterations 1
Time = 1.035s

smoothSolver:  Solving for T, Initial residual = 0.00216788, Final residual = 5.73193e-12, No Iterations 1
Time = 1.04s

smoothSolver:  Solving for T, Initial residual = 0.00215744, Final residual = 5.711e-12, No Iterations 1
Time = 1.045s

smoothSolver:  Solving for T, Initial residual = 0.00214711, Final residual = 5.69027e-12, No Iterations 1
Time = 1.05s

smoothSolver:  Solving for T, Initial residual = 0.00213688, Final residual = 5.66975e-12, No Iterations 1
Time = 1.055s

smoothSolver:  Solving for T, Initial residual = 0.00212674, Final residual = 5.64942e-12, No Iterations 1
Time = 1.06s

smoothSolver:  Solving for T, Initial residual = 0.0021167, Final residual = 5.6293e-12, No Iterations 1
Time = 1.065s

smoothSolver:  Solving for T, Initial residual = 0.00210675, Final residual = 5.60936e-12, No Iterations 1
Time = 1.07s

smoothSolver:  Solving for T, Initial residual = 0.0020969, Final residual = 5.58962e-12, No Iterations 1
Time = 1.075s

smoothSolver:  Solving for T, Initial residual = 0.00208714, Final residual = 5.57007e-12, No Iterations 1
Time = 1.08s

smoothSolver:  Solving for T, Initial residual = 0.00207747, Final residual = 5.5507e-12, No Iterations 1
Time = 1.085s

smoothSolver:  Solving for T, Initial residual = 0.00206789, Final residual = 5.53152e-12, No Iterations 1
Time = 1.09s

smoothSolver:  Solving for T, Initial residual = 0.0020584, Final residual = 5.51252e-12, No Iterations 1
Time = 1.095s

smoothSolver:  Solving for T, Initial residual = 0.00204899, Final residual = 5.4937e-12, No Iterations 1
Time = 1.1s

smoothSolver:  Solving for T, Initial residual = 0.00203967, Final residual = 5.47505e-12, No Iterations 1
Time = 1.105s

smoothSolver:  Solving for T, Initial residual = 0.00203044, Final residual = 5.45658e-12, No Iterations 1
Time = 1.11s

smoothSolver:  Solving for T, Initial residual = 0.00202128, Final residual = 5.43827e-12, No Iterations 1
Time = 1.115s

smoothSolver:  Solving for T, Initial residual = 0.00201222, Final residual = 5.42015e-12, No Iterations 1
Time = 1.12s

smoothSolver:  Solving for T, Initial residual = 0.00200323, Final residual = 5.40217e-12, No Iterations 1
Time = 1.125s

smoothSolver:  Solving for T, Initial residual = 0.00199432, Final residual = 5.38438e-12, No Iterations 1
Time = 1.13s

smoothSolver:  Solving for T, Initial residual = 0.00198549, Final residual = 5.36674e-12, No Iterations 1
Time = 1.135s

smoothSolver:  Solving for T, Initial residual = 0.00197674, Final residual = 5.34927e-12, No Iterations 1
Time = 1.14s

smoothSolver:  Solving for T, Initial residual = 0.00196807, Final residual = 5.33195e-12, No Iterations 1
Time = 1.145s

smoothSolver:  Solving for T, Initial residual = 0.00195947, Final residual = 5.31478e-12, No Iterations 1
Time = 1.15s

smoothSolver:  Solving for T, Initial residual = 0.00195095, Final residual = 5.29777e-12, No Iterations 1
Time = 1.155s

smoothSolver:  Solving for T, Initial residual = 0.00194251, Final residual = 5.28093e-12, No Iterations 1
Time = 1.16s

smoothSolver:  Solving for T, Initial residual = 0.00193413, Final residual = 5.26422e-12, No Iterations 1
Time = 1.165s

smoothSolver:  Solving for T, Initial residual = 0.00192583, Final residual = 5.24766e-12, No Iterations 1
Time = 1.17s

smoothSolver:  Solving for T, Initial residual = 0.0019176, Final residual = 5.23125e-12, No Iterations 1
Time = 1.175s

smoothSolver:  Solving for T, Initial residual = 0.00190944, Final residual = 5.21499e-12, No Iterations 1
Time = 1.18s

smoothSolver:  Solving for T, Initial residual = 0.00190135, Final residual = 5.19887e-12, No Iterations 1
Time = 1.185s

smoothSolver:  Solving for T, Initial residual = 0.00189332, Final residual = 5.18289e-12, No Iterations 1
Time = 1.19s

smoothSolver:  Solving for T, Initial residual = 0.00188537, Final residual = 5.16705e-12, No Iterations 1
Time = 1.195s

smoothSolver:  Solving for T, Initial residual = 0.00187748, Final residual = 5.15135e-12, No Iterations 1
Time = 1.2s

smoothSolver:  Solving for T, Initial residual = 0.00186966, Final residual = 5.13578e-12, No Iterations 1
Time = 1.205s

smoothSolver:  Solving for T, Initial residual = 0.0018619, Final residual = 5.12035e-12, No Iterations 1
Time = 1.21s

smoothSolver:  Solving for T, Initial residual = 0.00185421, Final residual = 5.10506e-12, No Iterations 1
Time = 1.215s

smoothSolver:  Solving for T, Initial residual = 0.00184658, Final residual = 5.08988e-12, No Iterations 1
Time = 1.22s

smoothSolver:  Solving for T, Initial residual = 0.00183902, Final residual = 5.07485e-12, No Iterations 1
Time = 1.225s

smoothSolver:  Solving for T, Initial residual = 0.00183151, Final residual = 5.05994e-12, No Iterations 1
Time = 1.23s

smoothSolver:  Solving for T, Initial residual = 0.00182407, Final residual = 5.04516e-12, No Iterations 1
Time = 1.235s

smoothSolver:  Solving for T, Initial residual = 0.00181669, Final residual = 5.03051e-12, No Iterations 1
Time = 1.24s

smoothSolver:  Solving for T, Initial residual = 0.00180937, Final residual = 5.01597e-12, No Iterations 1
Time = 1.245s

smoothSolver:  Solving for T, Initial residual = 0.0018021, Final residual = 5.00156e-12, No Iterations 1
Time = 1.25s

smoothSolver:  Solving for T, Initial residual = 0.0017949, Final residual = 4.98728e-12, No Iterations 1
Time = 1.255s

smoothSolver:  Solving for T, Initial residual = 0.00178775, Final residual = 4.97311e-12, No Iterations 1
Time = 1.26s

smoothSolver:  Solving for T, Initial residual = 0.00178066, Final residual = 4.95906e-12, No Iterations 1
Time = 1.265s

smoothSolver:  Solving for T, Initial residual = 0.00177363, Final residual = 4.94512e-12, No Iterations 1
Time = 1.27s

smoothSolver:  Solving for T, Initial residual = 0.00176665, Final residual = 4.9313e-12, No Iterations 1
Time = 1.275s

smoothSolver:  Solving for T, Initial residual = 0.00175973, Final residual = 4.91759e-12, No Iterations 1
Time = 1.28s

smoothSolver:  Solving for T, Initial residual = 0.00175286, Final residual = 4.90401e-12, No Iterations 1
Time = 1.285s

smoothSolver:  Solving for T, Initial residual = 0.00174604, Final residual = 4.89053e-12, No Iterations 1
Time = 1.29s

smoothSolver:  Solving for T, Initial residual = 0.00173928, Final residual = 4.87716e-12, No Iterations 1
Time = 1.295s

smoothSolver:  Solving for T, Initial residual = 0.00173257, Final residual = 4.8639e-12, No Iterations 1
Time = 1.3s

smoothSolver:  Solving for T, Initial residual = 0.00172592, Final residual = 4.85074e-12, No Iterations 1
Time = 1.305s

smoothSolver:  Solving for T, Initial residual = 0.00171931, Final residual = 4.83769e-12, No Iterations 1
Time = 1.31s

smoothSolver:  Solving for T, Initial residual = 0.00171275, Final residual = 4.82475e-12, No Iterations 1
Time = 1.315s

smoothSolver:  Solving for T, Initial residual = 0.00170625, Final residual = 4.81192e-12, No Iterations 1
Time = 1.32s

smoothSolver:  Solving for T, Initial residual = 0.00169979, Final residual = 4.79919e-12, No Iterations 1
Time = 1.325s

smoothSolver:  Solving for T, Initial residual = 0.00169339, Final residual = 4.78655e-12, No Iterations 1
Time = 1.33s

smoothSolver:  Solving for T, Initial residual = 0.00168703, Final residual = 4.77402e-12, No Iterations 1
Time = 1.335s

smoothSolver:  Solving for T, Initial residual = 0.00168072, Final residual = 4.76159e-12, No Iterations 1
Time = 1.34s

smoothSolver:  Solving for T, Initial residual = 0.00167445, Final residual = 4.74926e-12, No Iterations 1
Time = 1.345s

smoothSolver:  Solving for T, Initial residual = 0.00166824, Final residual = 4.73703e-12, No Iterations 1
Time = 1.35s

smoothSolver:  Solving for T, Initial residual = 0.00166207, Final residual = 4.72489e-12, No Iterations 1
Time = 1.355s

smoothSolver:  Solving for T, Initial residual = 0.00165594, Final residual = 4.71284e-12, No Iterations 1
Time = 1.36s

smoothSolver:  Solving for T, Initial residual = 0.00164986, Final residual = 4.7009e-12, No Iterations 1
Time = 1.365s

smoothSolver:  Solving for T, Initial residual = 0.00164383, Final residual = 4.68905e-12, No Iterations 1
Time = 1.37s

smoothSolver:  Solving for T, Initial residual = 0.00163784, Final residual = 4.67729e-12, No Iterations 1
Time = 1.375s

smoothSolver:  Solving for T, Initial residual = 0.00163189, Final residual = 4.66562e-12, No Iterations 1
Time = 1.38s

smoothSolver:  Solving for T, Initial residual = 0.00162599, Final residual = 4.65404e-12, No Iterations 1
Time = 1.385s

smoothSolver:  Solving for T, Initial residual = 0.00162013, Final residual = 4.64255e-12, No Iterations 1
Time = 1.39s

smoothSolver:  Solving for T, Initial residual = 0.00161431, Final residual = 4.63115e-12, No Iterations 1
Time = 1.395s

smoothSolver:  Solving for T, Initial residual = 0.00160853, Final residual = 4.61984e-12, No Iterations 1
Time = 1.4s

smoothSolver:  Solving for T, Initial residual = 0.0016028, Final residual = 4.60861e-12, No Iterations 1
Time = 1.405s

smoothSolver:  Solving for T, Initial residual = 0.00159711, Final residual = 4.59747e-12, No Iterations 1
Time = 1.41s

smoothSolver:  Solving for T, Initial residual = 0.00159145, Final residual = 4.58643e-12, No Iterations 1
Time = 1.415s

smoothSolver:  Solving for T, Initial residual = 0.00158584, Final residual = 4.57545e-12, No Iterations 1
Time = 1.42s

smoothSolver:  Solving for T, Initial residual = 0.00158027, Final residual = 4.56457e-12, No Iterations 1
Time = 1.425s

smoothSolver:  Solving for T, Initial residual = 0.00157473, Final residual = 4.55376e-12, No Iterations 1
Time = 1.43s

smoothSolver:  Solving for T, Initial residual = 0.00156924, Final residual = 4.54305e-12, No Iterations 1
Time = 1.435s

smoothSolver:  Solving for T, Initial residual = 0.00156378, Final residual = 4.53241e-12, No Iterations 1
Time = 1.44s

smoothSolver:  Solving for T, Initial residual = 0.00155837, Final residual = 4.52185e-12, No Iterations 1
Time = 1.445s

smoothSolver:  Solving for T, Initial residual = 0.00155299, Final residual = 4.51136e-12, No Iterations 1
Time = 1.45s

smoothSolver:  Solving for T, Initial residual = 0.00154764, Final residual = 4.50097e-12, No Iterations 1
Time = 1.455s

smoothSolver:  Solving for T, Initial residual = 0.00154234, Final residual = 4.49064e-12, No Iterations 1
Time = 1.46s

smoothSolver:  Solving for T, Initial residual = 0.00153707, Final residual = 4.4804e-12, No Iterations 1
Time = 1.465s

smoothSolver:  Solving for T, Initial residual = 0.00153183, Final residual = 4.47023e-12, No Iterations 1
Time = 1.47s

smoothSolver:  Solving for T, Initial residual = 0.00152664, Final residual = 4.46013e-12, No Iterations 1
Time = 1.475s

smoothSolver:  Solving for T, Initial residual = 0.00152147, Final residual = 4.45011e-12, No Iterations 1
Time = 1.48s

smoothSolver:  Solving for T, Initial residual = 0.00151635, Final residual = 4.44017e-12, No Iterations 1
Time = 1.485s

smoothSolver:  Solving for T, Initial residual = 0.00151125, Final residual = 4.4303e-12, No Iterations 1
Time = 1.49s

smoothSolver:  Solving for T, Initial residual = 0.0015062, Final residual = 4.4205e-12, No Iterations 1
Time = 1.495s

smoothSolver:  Solving for T, Initial residual = 0.00150117, Final residual = 4.41078e-12, No Iterations 1
Time = 1.5s

smoothSolver:  Solving for T, Initial residual = 0.00149618, Final residual = 4.40112e-12, No Iterations 1
Time = 1.505s

smoothSolver:  Solving for T, Initial residual = 0.00149123, Final residual = 4.39154e-12, No Iterations 1
Time = 1.51s

smoothSolver:  Solving for T, Initial residual = 0.0014863, Final residual = 4.38203e-12, No Iterations 1
Time = 1.515s

smoothSolver:  Solving for T, Initial residual = 0.00148141, Final residual = 4.37259e-12, No Iterations 1
Time = 1.52s

smoothSolver:  Solving for T, Initial residual = 0.00147655, Final residual = 4.36321e-12, No Iterations 1
Time = 1.525s

smoothSolver:  Solving for T, Initial residual = 0.00147173, Final residual = 4.3539e-12, No Iterations 1
Time = 1.53s

smoothSolver:  Solving for T, Initial residual = 0.00146693, Final residual = 4.34467e-12, No Iterations 1
Time = 1.535s

smoothSolver:  Solving for T, Initial residual = 0.00146217, Final residual = 4.3355e-12, No Iterations 1
Time = 1.54s

smoothSolver:  Solving for T, Initial residual = 0.00145743, Final residual = 4.32639e-12, No Iterations 1
Time = 1.545s

smoothSolver:  Solving for T, Initial residual = 0.00145273, Final residual = 4.31735e-12, No Iterations 1
Time = 1.55s

smoothSolver:  Solving for T, Initial residual = 0.00144806, Final residual = 4.30838e-12, No Iterations 1
Time = 1.555s

smoothSolver:  Solving for T, Initial residual = 0.00144342, Final residual = 4.29947e-12, No Iterations 1
Time = 1.56s

smoothSolver:  Solving for T, Initial residual = 0.00143881, Final residual = 4.29062e-12, No Iterations 1
Time = 1.565s

smoothSolver:  Solving for T, Initial residual = 0.00143423, Final residual = 4.28184e-12, No Iterations 1
Time = 1.57s

smoothSolver:  Solving for T, Initial residual = 0.00142968, Final residual = 4.27312e-12, No Iterations 1
Time = 1.575s

smoothSolver:  Solving for T, Initial residual = 0.00142515, Final residual = 4.26446e-12, No Iterations 1
Time = 1.58s

smoothSolver:  Solving for T, Initial residual = 0.00142066, Final residual = 4.25587e-12, No Iterations 1
Time = 1.585s

smoothSolver:  Solving for T, Initial residual = 0.0014162, Final residual = 4.24734e-12, No Iterations 1
Time = 1.59s

smoothSolver:  Solving for T, Initial residual = 0.00141176, Final residual = 4.23886e-12, No Iterations 1
Time = 1.595s

smoothSolver:  Solving for T, Initial residual = 0.00140735, Final residual = 4.23045e-12, No Iterations 1
Time = 1.6s

smoothSolver:  Solving for T, Initial residual = 0.00140297, Final residual = 4.2221e-12, No Iterations 1
Time = 1.605s

smoothSolver:  Solving for T, Initial residual = 0.00139861, Final residual = 4.2138e-12, No Iterations 1
Time = 1.61s

smoothSolver:  Solving for T, Initial residual = 0.00139429, Final residual = 4.20557e-12, No Iterations 1
Time = 1.615s

smoothSolver:  Solving for T, Initial residual = 0.00138999, Final residual = 4.19739e-12, No Iterations 1
Time = 1.62s

smoothSolver:  Solving for T, Initial residual = 0.00138571, Final residual = 4.18927e-12, No Iterations 1
Time = 1.625s

smoothSolver:  Solving for T, Initial residual = 0.00138147, Final residual = 4.18121e-12, No Iterations 1
Time = 1.63s

smoothSolver:  Solving for T, Initial residual = 0.00137725, Final residual = 4.1732e-12, No Iterations 1
Time = 1.635s

smoothSolver:  Solving for T, Initial residual = 0.00137305, Final residual = 4.16525e-12, No Iterations 1
Time = 1.64s

smoothSolver:  Solving for T, Initial residual = 0.00136888, Final residual = 4.15736e-12, No Iterations 1
Time = 1.645s

smoothSolver:  Solving for T, Initial residual = 0.00136474, Final residual = 4.14952e-12, No Iterations 1
Time = 1.65s

smoothSolver:  Solving for T, Initial residual = 0.00136062, Final residual = 4.14174e-12, No Iterations 1
Time = 1.655s

smoothSolver:  Solving for T, Initial residual = 0.00135653, Final residual = 4.13401e-12, No Iterations 1
Time = 1.66s

smoothSolver:  Solving for T, Initial residual = 0.00135246, Final residual = 4.12633e-12, No Iterations 1
Time = 1.665s

smoothSolver:  Solving for T, Initial residual = 0.00134842, Final residual = 4.11871e-12, No Iterations 1
Time = 1.67s

smoothSolver:  Solving for T, Initial residual = 0.0013444, Final residual = 4.11115e-12, No Iterations 1
Time = 1.675s

smoothSolver:  Solving for T, Initial residual = 0.00134041, Final residual = 4.10363e-12, No Iterations 1
Time = 1.68s

smoothSolver:  Solving for T, Initial residual = 0.00133644, Final residual = 4.09617e-12, No Iterations 1
Time = 1.685s

smoothSolver:  Solving for T, Initial residual = 0.00133249, Final residual = 4.08876e-12, No Iterations 1
Time = 1.69s

smoothSolver:  Solving for T, Initial residual = 0.00132856, Final residual = 4.08139e-12, No Iterations 1
Time = 1.695s

smoothSolver:  Solving for T, Initial residual = 0.00132466, Final residual = 4.07408e-12, No Iterations 1
Time = 1.7s

smoothSolver:  Solving for T, Initial residual = 0.00132079, Final residual = 4.06682e-12, No Iterations 1
Time = 1.705s

smoothSolver:  Solving for T, Initial residual = 0.00131693, Final residual = 4.05962e-12, No Iterations 1
Time = 1.71s

smoothSolver:  Solving for T, Initial residual = 0.0013131, Final residual = 4.05245e-12, No Iterations 1
Time = 1.715s

smoothSolver:  Solving for T, Initial residual = 0.00130929, Final residual = 4.04534e-12, No Iterations 1
Time = 1.72s

smoothSolver:  Solving for T, Initial residual = 0.00130551, Final residual = 4.03829e-12, No Iterations 1
Time = 1.725s

smoothSolver:  Solving for T, Initial residual = 0.00130174, Final residual = 4.03127e-12, No Iterations 1
Time = 1.73s

smoothSolver:  Solving for T, Initial residual = 0.001298, Final residual = 4.02431e-12, No Iterations 1
Time = 1.735s

smoothSolver:  Solving for T, Initial residual = 0.00129428, Final residual = 4.01739e-12, No Iterations 1
Time = 1.74s

smoothSolver:  Solving for T, Initial residual = 0.00129058, Final residual = 4.01052e-12, No Iterations 1
Time = 1.745s

smoothSolver:  Solving for T, Initial residual = 0.0012869, Final residual = 4.0037e-12, No Iterations 1
Time = 1.75s

smoothSolver:  Solving for T, Initial residual = 0.00128324, Final residual = 3.99693e-12, No Iterations 1
Time = 1.755s

smoothSolver:  Solving for T, Initial residual = 0.00127961, Final residual = 3.9902e-12, No Iterations 1
Time = 1.76s

smoothSolver:  Solving for T, Initial residual = 0.00127599, Final residual = 3.98352e-12, No Iterations 1
Time = 1.765s

smoothSolver:  Solving for T, Initial residual = 0.0012724, Final residual = 3.97688e-12, No Iterations 1
Time = 1.77s

smoothSolver:  Solving for T, Initial residual = 0.00126882, Final residual = 3.97028e-12, No Iterations 1
Time = 1.775s

smoothSolver:  Solving for T, Initial residual = 0.00126527, Final residual = 3.96374e-12, No Iterations 1
Time = 1.78s

smoothSolver:  Solving for T, Initial residual = 0.00126174, Final residual = 3.95724e-12, No Iterations 1
Time = 1.785s

smoothSolver:  Solving for T, Initial residual = 0.00125822, Final residual = 3.95078e-12, No Iterations 1
Time = 1.79s

smoothSolver:  Solving for T, Initial residual = 0.00125473, Final residual = 3.94437e-12, No Iterations 1
Time = 1.795s

smoothSolver:  Solving for T, Initial residual = 0.00125126, Final residual = 3.938e-12, No Iterations 1
Time = 1.8s

smoothSolver:  Solving for T, Initial residual = 0.0012478, Final residual = 3.93167e-12, No Iterations 1
Time = 1.805s

smoothSolver:  Solving for T, Initial residual = 0.00124437, Final residual = 3.92539e-12, No Iterations 1
Time = 1.81s

smoothSolver:  Solving for T, Initial residual = 0.00124095, Final residual = 3.91915e-12, No Iterations 1
Time = 1.815s

smoothSolver:  Solving for T, Initial residual = 0.00123755, Final residual = 3.91295e-12, No Iterations 1
Time = 1.82s

smoothSolver:  Solving for T, Initial residual = 0.00123417, Final residual = 3.90679e-12, No Iterations 1
Time = 1.825s

smoothSolver:  Solving for T, Initial residual = 0.00123082, Final residual = 3.90068e-12, No Iterations 1
Time = 1.83s

smoothSolver:  Solving for T, Initial residual = 0.00122747, Final residual = 3.8946e-12, No Iterations 1
Time = 1.835s

smoothSolver:  Solving for T, Initial residual = 0.00122415, Final residual = 3.88856e-12, No Iterations 1
Time = 1.84s

smoothSolver:  Solving for T, Initial residual = 0.00122085, Final residual = 3.88257e-12, No Iterations 1
Time = 1.845s

smoothSolver:  Solving for T, Initial residual = 0.00121756, Final residual = 3.87662e-12, No Iterations 1
Time = 1.85s

smoothSolver:  Solving for T, Initial residual = 0.00121429, Final residual = 3.87071e-12, No Iterations 1
Time = 1.855s

smoothSolver:  Solving for T, Initial residual = 0.00121104, Final residual = 3.86484e-12, No Iterations 1
Time = 1.86s

smoothSolver:  Solving for T, Initial residual = 0.00120781, Final residual = 3.85901e-12, No Iterations 1
Time = 1.865s

smoothSolver:  Solving for T, Initial residual = 0.00120459, Final residual = 3.85322e-12, No Iterations 1
Time = 1.87s

smoothSolver:  Solving for T, Initial residual = 0.00120139, Final residual = 3.84747e-12, No Iterations 1
Time = 1.875s

smoothSolver:  Solving for T, Initial residual = 0.00119821, Final residual = 3.84176e-12, No Iterations 1
Time = 1.88s

smoothSolver:  Solving for T, Initial residual = 0.00119505, Final residual = 3.83609e-12, No Iterations 1
Time = 1.885s

smoothSolver:  Solving for T, Initial residual = 0.0011919, Final residual = 3.83045e-12, No Iterations 1
Time = 1.89s

smoothSolver:  Solving for T, Initial residual = 0.00118877, Final residual = 3.82485e-12, No Iterations 1
Time = 1.895s

smoothSolver:  Solving for T, Initial residual = 0.00118566, Final residual = 3.81929e-12, No Iterations 1
Time = 1.9s

smoothSolver:  Solving for T, Initial residual = 0.00118256, Final residual = 3.81377e-12, No Iterations 1
Time = 1.905s

smoothSolver:  Solving for T, Initial residual = 0.00117948, Final residual = 3.80828e-12, No Iterations 1
Time = 1.91s

smoothSolver:  Solving for T, Initial residual = 0.00117641, Final residual = 3.80284e-12, No Iterations 1
Time = 1.915s

smoothSolver:  Solving for T, Initial residual = 0.00117336, Final residual = 3.79743e-12, No Iterations 1
Time = 1.92s

smoothSolver:  Solving for T, Initial residual = 0.00117033, Final residual = 3.79205e-12, No Iterations 1
Time = 1.925s

smoothSolver:  Solving for T, Initial residual = 0.00116732, Final residual = 3.78671e-12, No Iterations 1
Time = 1.93s

smoothSolver:  Solving for T, Initial residual = 0.00116432, Final residual = 3.78141e-12, No Iterations 1
Time = 1.935s

smoothSolver:  Solving for T, Initial residual = 0.00116133, Final residual = 3.77615e-12, No Iterations 1
Time = 1.94s

smoothSolver:  Solving for T, Initial residual = 0.00115836, Final residual = 3.77092e-12, No Iterations 1
Time = 1.945s

smoothSolver:  Solving for T, Initial residual = 0.00115541, Final residual = 3.76572e-12, No Iterations 1
Time = 1.95s

smoothSolver:  Solving for T, Initial residual = 0.00115247, Final residual = 3.76056e-12, No Iterations 1
Time = 1.955s

smoothSolver:  Solving for T, Initial residual = 0.00114954, Final residual = 3.75543e-12, No Iterations 1
Time = 1.96s

smoothSolver:  Solving for T, Initial residual = 0.00114664, Final residual = 3.75035e-12, No Iterations 1
Time = 1.965s

smoothSolver:  Solving for T, Initial residual = 0.00114374, Final residual = 3.74529e-12, No Iterations 1
Time = 1.97s

smoothSolver:  Solving for T, Initial residual = 0.00114086, Final residual = 3.74027e-12, No Iterations 1
Time = 1.975s

smoothSolver:  Solving for T, Initial residual = 0.001138, Final residual = 3.73528e-12, No Iterations 1
Time = 1.98s

smoothSolver:  Solving for T, Initial residual = 0.00113515, Final residual = 3.73033e-12, No Iterations 1
Time = 1.985s

smoothSolver:  Solving for T, Initial residual = 0.00113232, Final residual = 3.72542e-12, No Iterations 1
Time = 1.99s

smoothSolver:  Solving for T, Initial residual = 0.00112949, Final residual = 3.72053e-12, No Iterations 1
Time = 1.995s

smoothSolver:  Solving for T, Initial residual = 0.00112669, Final residual = 3.71567e-12, No Iterations 1
Time = 2s

smoothSolver:  Solving for T, Initial residual = 0.0011239, Final residual = 3.71086e-12, No Iterations 1
Time = 2.005s

smoothSolver:  Solving for T, Initial residual = 0.00112112, Final residual = 3.70607e-12, No Iterations 1
Time = 2.01s

smoothSolver:  Solving for T, Initial residual = 0.00111835, Final residual = 3.70131e-12, No Iterations 1
Time = 2.015s

smoothSolver:  Solving for T, Initial residual = 0.0011156, Final residual = 3.6966e-12, No Iterations 1
Time = 2.02s

smoothSolver:  Solving for T, Initial residual = 0.00111287, Final residual = 3.6919e-12, No Iterations 1
Time = 2.025s

smoothSolver:  Solving for T, Initial residual = 0.00111014, Final residual = 3.68724e-12, No Iterations 1
Time = 2.03s

smoothSolver:  Solving for T, Initial residual = 0.00110744, Final residual = 3.68262e-12, No Iterations 1
Time = 2.035s

smoothSolver:  Solving for T, Initial residual = 0.00110474, Final residual = 3.67803e-12, No Iterations 1
Time = 2.04s

smoothSolver:  Solving for T, Initial residual = 0.00110206, Final residual = 3.67346e-12, No Iterations 1
Time = 2.045s

smoothSolver:  Solving for T, Initial residual = 0.00109939, Final residual = 3.66894e-12, No Iterations 1
Time = 2.05s

smoothSolver:  Solving for T, Initial residual = 0.00109673, Final residual = 3.66443e-12, No Iterations 1
Time = 2.055s

smoothSolver:  Solving for T, Initial residual = 0.00109409, Final residual = 3.65996e-12, No Iterations 1
Time = 2.06s

smoothSolver:  Solving for T, Initial residual = 0.00109146, Final residual = 3.65553e-12, No Iterations 1
Time = 2.065s

smoothSolver:  Solving for T, Initial residual = 0.00108884, Final residual = 3.65112e-12, No Iterations 1
Time = 2.07s

smoothSolver:  Solving for T, Initial residual = 0.00108624, Final residual = 3.64674e-12, No Iterations 1
Time = 2.075s

smoothSolver:  Solving for T, Initial residual = 0.00108365, Final residual = 3.64239e-12, No Iterations 1
Time = 2.08s

smoothSolver:  Solving for T, Initial residual = 0.00108107, Final residual = 3.63807e-12, No Iterations 1
Time = 2.085s

smoothSolver:  Solving for T, Initial residual = 0.0010785, Final residual = 3.63378e-12, No Iterations 1
Time = 2.09s

smoothSolver:  Solving for T, Initial residual = 0.00107595, Final residual = 3.62952e-12, No Iterations 1
Time = 2.095s

smoothSolver:  Solving for T, Initial residual = 0.0010734, Final residual = 3.6253e-12, No Iterations 1
Time = 2.1s

smoothSolver:  Solving for T, Initial residual = 0.00107087, Final residual = 3.6211e-12, No Iterations 1
Time = 2.105s

smoothSolver:  Solving for T, Initial residual = 0.00106836, Final residual = 3.61693e-12, No Iterations 1
Time = 2.11s

smoothSolver:  Solving for T, Initial residual = 0.00106585, Final residual = 3.61279e-12, No Iterations 1
Time = 2.115s

smoothSolver:  Solving for T, Initial residual = 0.00106336, Final residual = 3.60867e-12, No Iterations 1
Time = 2.12s

smoothSolver:  Solving for T, Initial residual = 0.00106088, Final residual = 3.60459e-12, No Iterations 1
Time = 2.125s

smoothSolver:  Solving for T, Initial residual = 0.00105841, Final residual = 3.60054e-12, No Iterations 1
Time = 2.13s

smoothSolver:  Solving for T, Initial residual = 0.00105595, Final residual = 3.59651e-12, No Iterations 1
Time = 2.135s

smoothSolver:  Solving for T, Initial residual = 0.0010535, Final residual = 3.59251e-12, No Iterations 1
Time = 2.14s

smoothSolver:  Solving for T, Initial residual = 0.00105107, Final residual = 3.58854e-12, No Iterations 1
Time = 2.145s

smoothSolver:  Solving for T, Initial residual = 0.00104864, Final residual = 3.5846e-12, No Iterations 1
Time = 2.15s

smoothSolver:  Solving for T, Initial residual = 0.00104623, Final residual = 3.58068e-12, No Iterations 1
Time = 2.155s

smoothSolver:  Solving for T, Initial residual = 0.00104383, Final residual = 3.57679e-12, No Iterations 1
Time = 2.16s

smoothSolver:  Solving for T, Initial residual = 0.00104144, Final residual = 3.57293e-12, No Iterations 1
Time = 2.165s

smoothSolver:  Solving for T, Initial residual = 0.00103906, Final residual = 3.5691e-12, No Iterations 1
Time = 2.17s

smoothSolver:  Solving for T, Initial residual = 0.0010367, Final residual = 3.56529e-12, No Iterations 1
Time = 2.175s

smoothSolver:  Solving for T, Initial residual = 0.00103434, Final residual = 3.56151e-12, No Iterations 1
Time = 2.18s

smoothSolver:  Solving for T, Initial residual = 0.001032, Final residual = 3.55776e-12, No Iterations 1
Time = 2.185s

smoothSolver:  Solving for T, Initial residual = 0.00102966, Final residual = 3.55404e-12, No Iterations 1
Time = 2.19s

smoothSolver:  Solving for T, Initial residual = 0.00102734, Final residual = 3.55034e-12, No Iterations 1
Time = 2.195s

smoothSolver:  Solving for T, Initial residual = 0.00102503, Final residual = 3.54666e-12, No Iterations 1
Time = 2.2s

smoothSolver:  Solving for T, Initial residual = 0.00102272, Final residual = 3.54302e-12, No Iterations 1
Time = 2.205s

smoothSolver:  Solving for T, Initial residual = 0.00102043, Final residual = 3.5394e-12, No Iterations 1
Time = 2.21s

smoothSolver:  Solving for T, Initial residual = 0.00101815, Final residual = 3.5358e-12, No Iterations 1
Time = 2.215s

smoothSolver:  Solving for T, Initial residual = 0.00101588, Final residual = 3.53223e-12, No Iterations 1
Time = 2.22s

smoothSolver:  Solving for T, Initial residual = 0.00101362, Final residual = 3.52869e-12, No Iterations 1
Time = 2.225s

smoothSolver:  Solving for T, Initial residual = 0.00101137, Final residual = 3.52517e-12, No Iterations 1
Time = 2.23s

smoothSolver:  Solving for T, Initial residual = 0.00100913, Final residual = 3.52168e-12, No Iterations 1
Time = 2.235s

smoothSolver:  Solving for T, Initial residual = 0.0010069, Final residual = 3.51822e-12, No Iterations 1
Time = 2.24s

smoothSolver:  Solving for T, Initial residual = 0.00100468, Final residual = 3.51478e-12, No Iterations 1
Time = 2.245s

smoothSolver:  Solving for T, Initial residual = 0.00100247, Final residual = 3.51136e-12, No Iterations 1
Time = 2.25s

smoothSolver:  Solving for T, Initial residual = 0.00100027, Final residual = 3.50797e-12, No Iterations 1
Time = 2.255s

smoothSolver:  Solving for T, Initial residual = 0.000998083, Final residual = 3.5046e-12, No Iterations 1
Time = 2.26s

smoothSolver:  Solving for T, Initial residual = 0.000995903, Final residual = 3.50126e-12, No Iterations 1
Time = 2.265s

smoothSolver:  Solving for T, Initial residual = 0.000993733, Final residual = 3.49794e-12, No Iterations 1
Time = 2.27s

smoothSolver:  Solving for T, Initial residual = 0.000991573, Final residual = 3.49465e-12, No Iterations 1
Time = 2.275s

smoothSolver:  Solving for T, Initial residual = 0.000989422, Final residual = 3.49138e-12, No Iterations 1
Time = 2.28s

smoothSolver:  Solving for T, Initial residual = 0.000987281, Final residual = 3.48813e-12, No Iterations 1
Time = 2.285s

smoothSolver:  Solving for T, Initial residual = 0.000985149, Final residual = 3.48491e-12, No Iterations 1
Time = 2.29s

smoothSolver:  Solving for T, Initial residual = 0.000983027, Final residual = 3.48172e-12, No Iterations 1
Time = 2.295s

smoothSolver:  Solving for T, Initial residual = 0.000980914, Final residual = 3.47855e-12, No Iterations 1
Time = 2.3s

smoothSolver:  Solving for T, Initial residual = 0.00097881, Final residual = 3.4754e-12, No Iterations 1
Time = 2.305s

smoothSolver:  Solving for T, Initial residual = 0.000976716, Final residual = 3.47227e-12, No Iterations 1
Time = 2.31s

smoothSolver:  Solving for T, Initial residual = 0.00097463, Final residual = 3.46917e-12, No Iterations 1
Time = 2.315s

smoothSolver:  Solving for T, Initial residual = 0.000972554, Final residual = 3.46609e-12, No Iterations 1
Time = 2.32s

smoothSolver:  Solving for T, Initial residual = 0.000970487, Final residual = 3.46303e-12, No Iterations 1
Time = 2.325s

smoothSolver:  Solving for T, Initial residual = 0.000968429, Final residual = 3.46e-12, No Iterations 1
Time = 2.33s

smoothSolver:  Solving for T, Initial residual = 0.00096638, Final residual = 3.45699e-12, No Iterations 1
Time = 2.335s

smoothSolver:  Solving for T, Initial residual = 0.00096434, Final residual = 3.45401e-12, No Iterations 1
Time = 2.34s

smoothSolver:  Solving for T, Initial residual = 0.000962309, Final residual = 3.45105e-12, No Iterations 1
Time = 2.345s

smoothSolver:  Solving for T, Initial residual = 0.000960287, Final residual = 3.4481e-12, No Iterations 1
Time = 2.35s

smoothSolver:  Solving for T, Initial residual = 0.000958273, Final residual = 3.44518e-12, No Iterations 1
Time = 2.355s

smoothSolver:  Solving for T, Initial residual = 0.000956268, Final residual = 3.44229e-12, No Iterations 1
Time = 2.36s

smoothSolver:  Solving for T, Initial residual = 0.000954271, Final residual = 3.43942e-12, No Iterations 1
Time = 2.365s

smoothSolver:  Solving for T, Initial residual = 0.000952283, Final residual = 3.43657e-12, No Iterations 1
Time = 2.37s

smoothSolver:  Solving for T, Initial residual = 0.000950304, Final residual = 3.43374e-12, No Iterations 1
Time = 2.375s

smoothSolver:  Solving for T, Initial residual = 0.000948333, Final residual = 3.43094e-12, No Iterations 1
Time = 2.38s

smoothSolver:  Solving for T, Initial residual = 0.00094637, Final residual = 3.42815e-12, No Iterations 1
Time = 2.385s

smoothSolver:  Solving for T, Initial residual = 0.000944416, Final residual = 3.42539e-12, No Iterations 1
Time = 2.39s

smoothSolver:  Solving for T, Initial residual = 0.00094247, Final residual = 3.42264e-12, No Iterations 1
Time = 2.395s

smoothSolver:  Solving for T, Initial residual = 0.000940533, Final residual = 3.41992e-12, No Iterations 1
Time = 2.4s

smoothSolver:  Solving for T, Initial residual = 0.000938603, Final residual = 3.41723e-12, No Iterations 1
Time = 2.405s

smoothSolver:  Solving for T, Initial residual = 0.000936682, Final residual = 3.41455e-12, No Iterations 1
Time = 2.41s

smoothSolver:  Solving for T, Initial residual = 0.000934769, Final residual = 3.4119e-12, No Iterations 1
Time = 2.415s

smoothSolver:  Solving for T, Initial residual = 0.000932864, Final residual = 3.40926e-12, No Iterations 1
Time = 2.42s

smoothSolver:  Solving for T, Initial residual = 0.000930966, Final residual = 3.40665e-12, No Iterations 1
Time = 2.425s

smoothSolver:  Solving for T, Initial residual = 0.000929077, Final residual = 3.40406e-12, No Iterations 1
Time = 2.43s

smoothSolver:  Solving for T, Initial residual = 0.000927196, Final residual = 3.40149e-12, No Iterations 1
Time = 2.435s

smoothSolver:  Solving for T, Initial residual = 0.000925322, Final residual = 3.39894e-12, No Iterations 1
Time = 2.44s

smoothSolver:  Solving for T, Initial residual = 0.000923457, Final residual = 3.39642e-12, No Iterations 1
Time = 2.445s

smoothSolver:  Solving for T, Initial residual = 0.000921599, Final residual = 3.39391e-12, No Iterations 1
Time = 2.45s

smoothSolver:  Solving for T, Initial residual = 0.000919748, Final residual = 3.39142e-12, No Iterations 1
Time = 2.455s

smoothSolver:  Solving for T, Initial residual = 0.000917906, Final residual = 3.38896e-12, No Iterations 1
Time = 2.46s

smoothSolver:  Solving for T, Initial residual = 0.000916071, Final residual = 3.38651e-12, No Iterations 1
Time = 2.465s

smoothSolver:  Solving for T, Initial residual = 0.000914243, Final residual = 3.38409e-12, No Iterations 1
Time = 2.47s

smoothSolver:  Solving for T, Initial residual = 0.000912423, Final residual = 3.38169e-12, No Iterations 1
Time = 2.475s

smoothSolver:  Solving for T, Initial residual = 0.000910611, Final residual = 3.3793e-12, No Iterations 1
Time = 2.48s

smoothSolver:  Solving for T, Initial residual = 0.000908806, Final residual = 3.37694e-12, No Iterations 1
Time = 2.485s

smoothSolver:  Solving for T, Initial residual = 0.000907008, Final residual = 3.37459e-12, No Iterations 1
Time = 2.49s

smoothSolver:  Solving for T, Initial residual = 0.000905218, Final residual = 3.37227e-12, No Iterations 1
Time = 2.495s

smoothSolver:  Solving for T, Initial residual = 0.000903435, Final residual = 3.36997e-12, No Iterations 1
Time = 2.5s

smoothSolver:  Solving for T, Initial residual = 0.000901659, Final residual = 3.36768e-12, No Iterations 1
Time = 2.505s

smoothSolver:  Solving for T, Initial residual = 0.000899891, Final residual = 3.36542e-12, No Iterations 1
Time = 2.51s

smoothSolver:  Solving for T, Initial residual = 0.000898129, Final residual = 3.36317e-12, No Iterations 1
Time = 2.515s

smoothSolver:  Solving for T, Initial residual = 0.000896375, Final residual = 3.36095e-12, No Iterations 1
Time = 2.52s

smoothSolver:  Solving for T, Initial residual = 0.000894628, Final residual = 3.35875e-12, No Iterations 1
Time = 2.525s

smoothSolver:  Solving for T, Initial residual = 0.000892887, Final residual = 3.35656e-12, No Iterations 1
Time = 2.53s

smoothSolver:  Solving for T, Initial residual = 0.000891154, Final residual = 3.35439e-12, No Iterations 1
Time = 2.535s

smoothSolver:  Solving for T, Initial residual = 0.000889428, Final residual = 3.35224e-12, No Iterations 1
Time = 2.54s

smoothSolver:  Solving for T, Initial residual = 0.000887709, Final residual = 3.35012e-12, No Iterations 1
Time = 2.545s

smoothSolver:  Solving for T, Initial residual = 0.000885996, Final residual = 3.34801e-12, No Iterations 1
Time = 2.55s

smoothSolver:  Solving for T, Initial residual = 0.000884291, Final residual = 3.34592e-12, No Iterations 1
Time = 2.555s

smoothSolver:  Solving for T, Initial residual = 0.000882592, Final residual = 3.34385e-12, No Iterations 1
Time = 2.56s

smoothSolver:  Solving for T, Initial residual = 0.0008809, Final residual = 3.3418e-12, No Iterations 1
Time = 2.565s

smoothSolver:  Solving for T, Initial residual = 0.000879214, Final residual = 3.33976e-12, No Iterations 1
Time = 2.57s

smoothSolver:  Solving for T, Initial residual = 0.000877536, Final residual = 3.33775e-12, No Iterations 1
Time = 2.575s

smoothSolver:  Solving for T, Initial residual = 0.000875864, Final residual = 3.33575e-12, No Iterations 1
Time = 2.58s

smoothSolver:  Solving for T, Initial residual = 0.000874198, Final residual = 3.33378e-12, No Iterations 1
Time = 2.585s

smoothSolver:  Solving for T, Initial residual = 0.000872539, Final residual = 3.33182e-12, No Iterations 1
Time = 2.59s

smoothSolver:  Solving for T, Initial residual = 0.000870887, Final residual = 3.32988e-12, No Iterations 1
Time = 2.595s

smoothSolver:  Solving for T, Initial residual = 0.000869241, Final residual = 3.32796e-12, No Iterations 1
Time = 2.6s

smoothSolver:  Solving for T, Initial residual = 0.000867601, Final residual = 3.32605e-12, No Iterations 1
Time = 2.605s

smoothSolver:  Solving for T, Initial residual = 0.000865968, Final residual = 3.32417e-12, No Iterations 1
Time = 2.61s

smoothSolver:  Solving for T, Initial residual = 0.000864342, Final residual = 3.3223e-12, No Iterations 1
Time = 2.615s

smoothSolver:  Solving for T, Initial residual = 0.000862721, Final residual = 3.32046e-12, No Iterations 1
Time = 2.62s

smoothSolver:  Solving for T, Initial residual = 0.000861107, Final residual = 3.31862e-12, No Iterations 1
Time = 2.625s

smoothSolver:  Solving for T, Initial residual = 0.000859499, Final residual = 3.31681e-12, No Iterations 1
Time = 2.63s

smoothSolver:  Solving for T, Initial residual = 0.000857898, Final residual = 3.31502e-12, No Iterations 1
Time = 2.635s

smoothSolver:  Solving for T, Initial residual = 0.000856302, Final residual = 3.31324e-12, No Iterations 1
Time = 2.64s

smoothSolver:  Solving for T, Initial residual = 0.000854713, Final residual = 3.31148e-12, No Iterations 1
Time = 2.645s

smoothSolver:  Solving for T, Initial residual = 0.00085313, Final residual = 3.30974e-12, No Iterations 1
Time = 2.65s

smoothSolver:  Solving for T, Initial residual = 0.000851553, Final residual = 3.30802e-12, No Iterations 1
Time = 2.655s

smoothSolver:  Solving for T, Initial residual = 0.000849982, Final residual = 3.30632e-12, No Iterations 1
Time = 2.66s

smoothSolver:  Solving for T, Initial residual = 0.000848417, Final residual = 3.30463e-12, No Iterations 1
Time = 2.665s

smoothSolver:  Solving for T, Initial residual = 0.000846858, Final residual = 3.30296e-12, No Iterations 1
Time = 2.67s

smoothSolver:  Solving for T, Initial residual = 0.000845305, Final residual = 3.30131e-12, No Iterations 1
Time = 2.675s

smoothSolver:  Solving for T, Initial residual = 0.000843758, Final residual = 3.29967e-12, No Iterations 1
Time = 2.68s

smoothSolver:  Solving for T, Initial residual = 0.000842217, Final residual = 3.29806e-12, No Iterations 1
Time = 2.685s

smoothSolver:  Solving for T, Initial residual = 0.000840681, Final residual = 3.29645e-12, No Iterations 1
Time = 2.69s

smoothSolver:  Solving for T, Initial residual = 0.000839152, Final residual = 3.29487e-12, No Iterations 1
Time = 2.695s

smoothSolver:  Solving for T, Initial residual = 0.000837628, Final residual = 3.29331e-12, No Iterations 1
Time = 2.7s

smoothSolver:  Solving for T, Initial residual = 0.00083611, Final residual = 3.29176e-12, No Iterations 1
Time = 2.705s

smoothSolver:  Solving for T, Initial residual = 0.000834598, Final residual = 3.29023e-12, No Iterations 1
Time = 2.71s

smoothSolver:  Solving for T, Initial residual = 0.000833091, Final residual = 3.28871e-12, No Iterations 1
Time = 2.715s

smoothSolver:  Solving for T, Initial residual = 0.00083159, Final residual = 3.28722e-12, No Iterations 1
Time = 2.72s

smoothSolver:  Solving for T, Initial residual = 0.000830095, Final residual = 3.28573e-12, No Iterations 1
Time = 2.725s

smoothSolver:  Solving for T, Initial residual = 0.000828605, Final residual = 3.28427e-12, No Iterations 1
Time = 2.73s

smoothSolver:  Solving for T, Initial residual = 0.000827121, Final residual = 3.28282e-12, No Iterations 1
Time = 2.735s

smoothSolver:  Solving for T, Initial residual = 0.000825642, Final residual = 3.28139e-12, No Iterations 1
Time = 2.74s

smoothSolver:  Solving for T, Initial residual = 0.000824169, Final residual = 3.27997e-12, No Iterations 1
Time = 2.745s

smoothSolver:  Solving for T, Initial residual = 0.000822701, Final residual = 3.27858e-12, No Iterations 1
Time = 2.75s

smoothSolver:  Solving for T, Initial residual = 0.000821239, Final residual = 3.2772e-12, No Iterations 1
Time = 2.755s

smoothSolver:  Solving for T, Initial residual = 0.000819782, Final residual = 3.27583e-12, No Iterations 1
Time = 2.76s

smoothSolver:  Solving for T, Initial residual = 0.000818331, Final residual = 3.27448e-12, No Iterations 1
Time = 2.765s

smoothSolver:  Solving for T, Initial residual = 0.000816885, Final residual = 3.27315e-12, No Iterations 1
Time = 2.77s

smoothSolver:  Solving for T, Initial residual = 0.000815444, Final residual = 3.27184e-12, No Iterations 1
Time = 2.775s

smoothSolver:  Solving for T, Initial residual = 0.000814008, Final residual = 3.27054e-12, No Iterations 1
Time = 2.78s

smoothSolver:  Solving for T, Initial residual = 0.000812578, Final residual = 3.26926e-12, No Iterations 1
Time = 2.785s

smoothSolver:  Solving for T, Initial residual = 0.000811153, Final residual = 3.26799e-12, No Iterations 1
Time = 2.79s

smoothSolver:  Solving for T, Initial residual = 0.000809734, Final residual = 3.26674e-12, No Iterations 1
Time = 2.795s

smoothSolver:  Solving for T, Initial residual = 0.000808319, Final residual = 3.26551e-12, No Iterations 1
Time = 2.8s

smoothSolver:  Solving for T, Initial residual = 0.000806909, Final residual = 3.26428e-12, No Iterations 1
Time = 2.805s

smoothSolver:  Solving for T, Initial residual = 0.000805503, Final residual = 3.26308e-12, No Iterations 1
Time = 2.81s

smoothSolver:  Solving for T, Initial residual = 0.000804103, Final residual = 3.26189e-12, No Iterations 1
Time = 2.815s

smoothSolver:  Solving for T, Initial residual = 0.000802707, Final residual = 3.26071e-12, No Iterations 1
Time = 2.82s

smoothSolver:  Solving for T, Initial residual = 0.000801317, Final residual = 3.25955e-12, No Iterations 1
Time = 2.825s

smoothSolver:  Solving for T, Initial residual = 0.000799931, Final residual = 3.2584e-12, No Iterations 1
Time = 2.83s

smoothSolver:  Solving for T, Initial residual = 0.00079855, Final residual = 3.25727e-12, No Iterations 1
Time = 2.835s

smoothSolver:  Solving for T, Initial residual = 0.000797175, Final residual = 3.25616e-12, No Iterations 1
Time = 2.84s

smoothSolver:  Solving for T, Initial residual = 0.000795804, Final residual = 3.25506e-12, No Iterations 1
Time = 2.845s

smoothSolver:  Solving for T, Initial residual = 0.000794438, Final residual = 3.25398e-12, No Iterations 1
Time = 2.85s

smoothSolver:  Solving for T, Initial residual = 0.000793076, Final residual = 3.25291e-12, No Iterations 1
Time = 2.855s

smoothSolver:  Solving for T, Initial residual = 0.000791718, Final residual = 3.25185e-12, No Iterations 1
Time = 2.86s

smoothSolver:  Solving for T, Initial residual = 0.000790356, Final residual = 3.25077e-12, No Iterations 1
Time = 2.865s

smoothSolver:  Solving for T, Initial residual = 0.000788992, Final residual = 3.24967e-12, No Iterations 1
Time = 2.87s

smoothSolver:  Solving for T, Initial residual = 0.000787625, Final residual = 3.24856e-12, No Iterations 1
Time = 2.875s

smoothSolver:  Solving for T, Initial residual = 0.000786263, Final residual = 3.24747e-12, No Iterations 1
Time = 2.88s

smoothSolver:  Solving for T, Initial residual = 0.000784904, Final residual = 3.24638e-12, No Iterations 1
Time = 2.885s

smoothSolver:  Solving for T, Initial residual = 0.00078355, Final residual = 3.24531e-12, No Iterations 1
Time = 2.89s

smoothSolver:  Solving for T, Initial residual = 0.000782201, Final residual = 3.24425e-12, No Iterations 1
Time = 2.895s

smoothSolver:  Solving for T, Initial residual = 0.000780856, Final residual = 3.24322e-12, No Iterations 1
Time = 2.9s

smoothSolver:  Solving for T, Initial residual = 0.000779516, Final residual = 3.24219e-12, No Iterations 1
Time = 2.905s

smoothSolver:  Solving for T, Initial residual = 0.00077818, Final residual = 3.24117e-12, No Iterations 1
Time = 2.91s

smoothSolver:  Solving for T, Initial residual = 0.000776848, Final residual = 3.24017e-12, No Iterations 1
Time = 2.915s

smoothSolver:  Solving for T, Initial residual = 0.000775521, Final residual = 3.23919e-12, No Iterations 1
Time = 2.92s

smoothSolver:  Solving for T, Initial residual = 0.000774199, Final residual = 3.23822e-12, No Iterations 1
Time = 2.925s

smoothSolver:  Solving for T, Initial residual = 0.00077288, Final residual = 3.23726e-12, No Iterations 1
Time = 2.93s

smoothSolver:  Solving for T, Initial residual = 0.000771567, Final residual = 3.23632e-12, No Iterations 1
Time = 2.935s

smoothSolver:  Solving for T, Initial residual = 0.000770257, Final residual = 3.23539e-12, No Iterations 1
Time = 2.94s

smoothSolver:  Solving for T, Initial residual = 0.000768953, Final residual = 3.23447e-12, No Iterations 1
Time = 2.945s

smoothSolver:  Solving for T, Initial residual = 0.000767652, Final residual = 3.23358e-12, No Iterations 1
Time = 2.95s

smoothSolver:  Solving for T, Initial residual = 0.000766356, Final residual = 3.23269e-12, No Iterations 1
Time = 2.955s

smoothSolver:  Solving for T, Initial residual = 0.000765064, Final residual = 3.23182e-12, No Iterations 1
Time = 2.96s

smoothSolver:  Solving for T, Initial residual = 0.000763776, Final residual = 3.23096e-12, No Iterations 1
Time = 2.965s

smoothSolver:  Solving for T, Initial residual = 0.000762493, Final residual = 3.23011e-12, No Iterations 1
Time = 2.97s

smoothSolver:  Solving for T, Initial residual = 0.000761214, Final residual = 3.22929e-12, No Iterations 1
Time = 2.975s

smoothSolver:  Solving for T, Initial residual = 0.000759939, Final residual = 3.22847e-12, No Iterations 1
Time = 2.98s

smoothSolver:  Solving for T, Initial residual = 0.000758669, Final residual = 3.22767e-12, No Iterations 1
Time = 2.985s

smoothSolver:  Solving for T, Initial residual = 0.000757402, Final residual = 3.22688e-12, No Iterations 1
Time = 2.99s

smoothSolver:  Solving for T, Initial residual = 0.00075614, Final residual = 3.22611e-12, No Iterations 1
Time = 2.995s

smoothSolver:  Solving for T, Initial residual = 0.000754882, Final residual = 3.22535e-12, No Iterations 1
Time = 3s

smoothSolver:  Solving for T, Initial residual = 0.000753629, Final residual = 3.2246e-12, No Iterations 1
Time = 3.005s

smoothSolver:  Solving for T, Initial residual = 0.000752379, Final residual = 3.22387e-12, No Iterations 1
Time = 3.01s

smoothSolver:  Solving for T, Initial residual = 0.000751133, Final residual = 3.22315e-12, No Iterations 1
Time = 3.015s

smoothSolver:  Solving for T, Initial residual = 0.000749892, Final residual = 3.22244e-12, No Iterations 1
Time = 3.02s

smoothSolver:  Solving for T, Initial residual = 0.000748655, Final residual = 3.22175e-12, No Iterations 1
Time = 3.025s

smoothSolver:  Solving for T, Initial residual = 0.000747422, Final residual = 3.22107e-12, No Iterations 1
Time = 3.03s

smoothSolver:  Solving for T, Initial residual = 0.000746193, Final residual = 3.22041e-12, No Iterations 1
Time = 3.035s

smoothSolver:  Solving for T, Initial residual = 0.000744968, Final residual = 3.21976e-12, No Iterations 1
Time = 3.04s

smoothSolver:  Solving for T, Initial residual = 0.000743747, Final residual = 3.21912e-12, No Iterations 1
Time = 3.045s

smoothSolver:  Solving for T, Initial residual = 0.00074253, Final residual = 3.2185e-12, No Iterations 1
Time = 3.05s

smoothSolver:  Solving for T, Initial residual = 0.000741317, Final residual = 3.21789e-12, No Iterations 1
Time = 3.055s

smoothSolver:  Solving for T, Initial residual = 0.000740108, Final residual = 3.21729e-12, No Iterations 1
Time = 3.06s

smoothSolver:  Solving for T, Initial residual = 0.000738903, Final residual = 3.21671e-12, No Iterations 1
Time = 3.065s

smoothSolver:  Solving for T, Initial residual = 0.000737702, Final residual = 3.21614e-12, No Iterations 1
Time = 3.07s

smoothSolver:  Solving for T, Initial residual = 0.000736505, Final residual = 3.21559e-12, No Iterations 1
Time = 3.075s

smoothSolver:  Solving for T, Initial residual = 0.000735312, Final residual = 3.21505e-12, No Iterations 1
Time = 3.08s

smoothSolver:  Solving for T, Initial residual = 0.000734122, Final residual = 3.21452e-12, No Iterations 1
Time = 3.085s

smoothSolver:  Solving for T, Initial residual = 0.000732937, Final residual = 3.214e-12, No Iterations 1
Time = 3.09s

smoothSolver:  Solving for T, Initial residual = 0.000731755, Final residual = 3.2135e-12, No Iterations 1
Time = 3.095s

smoothSolver:  Solving for T, Initial residual = 0.000730577, Final residual = 3.21301e-12, No Iterations 1
Time = 3.1s

smoothSolver:  Solving for T, Initial residual = 0.000729403, Final residual = 3.21254e-12, No Iterations 1
Time = 3.105s

smoothSolver:  Solving for T, Initial residual = 0.000728233, Final residual = 3.21208e-12, No Iterations 1
Time = 3.11s

smoothSolver:  Solving for T, Initial residual = 0.000727067, Final residual = 3.21163e-12, No Iterations 1
Time = 3.115s

smoothSolver:  Solving for T, Initial residual = 0.000725904, Final residual = 3.21119e-12, No Iterations 1
Time = 3.12s

smoothSolver:  Solving for T, Initial residual = 0.000724745, Final residual = 3.21077e-12, No Iterations 1
Time = 3.125s

smoothSolver:  Solving for T, Initial residual = 0.00072359, Final residual = 3.21037e-12, No Iterations 1
Time = 3.13s

smoothSolver:  Solving for T, Initial residual = 0.000722438, Final residual = 3.20997e-12, No Iterations 1
Time = 3.135s

smoothSolver:  Solving for T, Initial residual = 0.000721291, Final residual = 3.20959e-12, No Iterations 1
Time = 3.14s

smoothSolver:  Solving for T, Initial residual = 0.000720146, Final residual = 3.20922e-12, No Iterations 1
Time = 3.145s

smoothSolver:  Solving for T, Initial residual = 0.000719006, Final residual = 3.20886e-12, No Iterations 1
Time = 3.15s

smoothSolver:  Solving for T, Initial residual = 0.000717869, Final residual = 3.20851e-12, No Iterations 1
Time = 3.155s

smoothSolver:  Solving for T, Initial residual = 0.000716736, Final residual = 3.20819e-12, No Iterations 1
Time = 3.16s

smoothSolver:  Solving for T, Initial residual = 0.000715606, Final residual = 3.20787e-12, No Iterations 1
Time = 3.165s

smoothSolver:  Solving for T, Initial residual = 0.00071448, Final residual = 3.20756e-12, No Iterations 1
Time = 3.17s

smoothSolver:  Solving for T, Initial residual = 0.000713358, Final residual = 3.20727e-12, No Iterations 1
Time = 3.175s

smoothSolver:  Solving for T, Initial residual = 0.000712239, Final residual = 3.20699e-12, No Iterations 1
Time = 3.18s

smoothSolver:  Solving for T, Initial residual = 0.000711123, Final residual = 3.20672e-12, No Iterations 1
Time = 3.185s

smoothSolver:  Solving for T, Initial residual = 0.000710011, Final residual = 3.20647e-12, No Iterations 1
Time = 3.19s

smoothSolver:  Solving for T, Initial residual = 0.000708903, Final residual = 3.20623e-12, No Iterations 1
Time = 3.195s

smoothSolver:  Solving for T, Initial residual = 0.000707798, Final residual = 3.206e-12, No Iterations 1
Time = 3.2s

smoothSolver:  Solving for T, Initial residual = 0.000706697, Final residual = 3.20578e-12, No Iterations 1
Time = 3.205s

smoothSolver:  Solving for T, Initial residual = 0.000705599, Final residual = 3.20558e-12, No Iterations 1
Time = 3.21s

smoothSolver:  Solving for T, Initial residual = 0.000704504, Final residual = 3.20539e-12, No Iterations 1
Time = 3.215s

smoothSolver:  Solving for T, Initial residual = 0.000703413, Final residual = 3.20521e-12, No Iterations 1
Time = 3.22s

[...]

smoothSolver:  Solving for T, Initial residual = 0.000540784, Final residual = 3.38386e-12, No Iterations 1
Time = 4.195s

smoothSolver:  Solving for T, Initial residual = 0.000540147, Final residual = 3.38576e-12, No Iterations 1
Time = 4.2s

smoothSolver:  Solving for T, Initial residual = 0.000539512, Final residual = 3.38767e-12, No Iterations 1
Time = 4.205s

smoothSolver:  Solving for T, Initial residual = 0.000538878, Final residual = 3.38959e-12, No Iterations 1
Time = 4.21s

smoothSolver:  Solving for T, Initial residual = 0.000538245, Final residual = 3.39151e-12, No Iterations 1
Time = 4.215s

smoothSolver:  Solving for T, Initial residual = 0.000537614, Final residual = 3.39345e-12, No Iterations 1
Time = 4.22s

smoothSolver:  Solving for T, Initial residual = 0.000536985, Final residual = 3.39539e-12, No Iterations 1
Time = 4.225s

smoothSolver:  Solving for T, Initial residual = 0.000536357, Final residual = 3.39735e-12, No Iterations 1
Time = 4.23s

smoothSolver:  Solving for T, Initial residual = 0.000535731, Final residual = 3.39931e-12, No Iterations 1
Time = 4.235s

smoothSolver:  Solving for T, Initial residual = 0.000535106, Final residual = 3.40128e-12, No Iterations 1
Time = 4.24s

smoothSolver:  Solving for T, Initial residual = 0.000534483, Final residual = 3.40326e-12, No Iterations 1
Time = 4.245s

smoothSolver:  Solving for T, Initial residual = 0.000533861, Final residual = 3.40525e-12, No Iterations 1
Time = 4.25s

smoothSolver:  Solving for T, Initial residual = 0.00053324, Final residual = 3.40725e-12, No Iterations 1
Time = 4.255s

smoothSolver:  Solving for T, Initial residual = 0.000532621, Final residual = 3.40926e-12, No Iterations 1
Time = 4.26s

smoothSolver:  Solving for T, Initial residual = 0.000532004, Final residual = 3.41128e-12, No Iterations 1
Time = 4.265s

smoothSolver:  Solving for T, Initial residual = 0.000531388, Final residual = 3.4133e-12, No Iterations 1
Time = 4.27s

smoothSolver:  Solving for T, Initial residual = 0.000530774, Final residual = 3.41534e-12, No Iterations 1
Time = 4.275s

smoothSolver:  Solving for T, Initial residual = 0.000530161, Final residual = 3.41738e-12, No Iterations 1
Time = 4.28s

smoothSolver:  Solving for T, Initial residual = 0.000529549, Final residual = 3.41944e-12, No Iterations 1
Time = 4.285s

smoothSolver:  Solving for T, Initial residual = 0.000528939, Final residual = 3.4215e-12, No Iterations 1
Time = 4.29s

smoothSolver:  Solving for T, Initial residual = 0.00052833, Final residual = 3.42357e-12, No Iterations 1
Time = 4.295s

smoothSolver:  Solving for T, Initial residual = 0.000527723, Final residual = 3.42565e-12, No Iterations 1
Time = 4.3s

smoothSolver:  Solving for T, Initial residual = 0.000527117, Final residual = 3.42774e-12, No Iterations 1
Time = 4.305s

smoothSolver:  Solving for T, Initial residual = 0.000526513, Final residual = 3.42983e-12, No Iterations 1
Time = 4.31s

smoothSolver:  Solving for T, Initial residual = 0.00052591, Final residual = 3.43194e-12, No Iterations 1
Time = 4.315s

smoothSolver:  Solving for T, Initial residual = 0.000525308, Final residual = 3.43406e-12, No Iterations 1
Time = 4.32s

smoothSolver:  Solving for T, Initial residual = 0.000524708, Final residual = 3.43618e-12, No Iterations 1
Time = 4.325s

smoothSolver:  Solving for T, Initial residual = 0.00052411, Final residual = 3.43831e-12, No Iterations 1
Time = 4.33s

smoothSolver:  Solving for T, Initial residual = 0.000523512, Final residual = 3.44046e-12, No Iterations 1
Time = 4.335s

smoothSolver:  Solving for T, Initial residual = 0.000522916, Final residual = 3.44261e-12, No Iterations 1
Time = 4.34s

smoothSolver:  Solving for T, Initial residual = 0.000522322, Final residual = 3.44477e-12, No Iterations 1
Time = 4.345s

smoothSolver:  Solving for T, Initial residual = 0.000521729, Final residual = 3.44694e-12, No Iterations 1
Time = 4.35s

smoothSolver:  Solving for T, Initial residual = 0.000521137, Final residual = 3.44911e-12, No Iterations 1
Time = 4.355s

smoothSolver:  Solving for T, Initial residual = 0.000520547, Final residual = 3.4513e-12, No Iterations 1
Time = 4.36s

smoothSolver:  Solving for T, Initial residual = 0.000519958, Final residual = 3.4535e-12, No Iterations 1
Time = 4.365s

smoothSolver:  Solving for T, Initial residual = 0.00051937, Final residual = 3.4557e-12, No Iterations 1
Time = 4.37s

smoothSolver:  Solving for T, Initial residual = 0.000518784, Final residual = 3.45791e-12, No Iterations 1
Time = 4.375s

smoothSolver:  Solving for T, Initial residual = 0.000518199, Final residual = 3.46013e-12, No Iterations 1
Time = 4.38s

smoothSolver:  Solving for T, Initial residual = 0.000517616, Final residual = 3.46236e-12, No Iterations 1
Time = 4.385s

smoothSolver:  Solving for T, Initial residual = 0.000517034, Final residual = 3.4646e-12, No Iterations 1
Time = 4.39s

smoothSolver:  Solving for T, Initial residual = 0.000516453, Final residual = 3.46685e-12, No Iterations 1
Time = 4.395s

smoothSolver:  Solving for T, Initial residual = 0.000515873, Final residual = 3.46911e-12, No Iterations 1
Time = 4.4s

smoothSolver:  Solving for T, Initial residual = 0.000515295, Final residual = 3.47137e-12, No Iterations 1
Time = 4.405s

smoothSolver:  Solving for T, Initial residual = 0.000514718, Final residual = 3.47365e-12, No Iterations 1
Time = 4.41s

smoothSolver:  Solving for T, Initial residual = 0.000514143, Final residual = 3.47593e-12, No Iterations 1
Time = 4.415s

smoothSolver:  Solving for T, Initial residual = 0.000513569, Final residual = 3.47822e-12, No Iterations 1
Time = 4.42s

smoothSolver:  Solving for T, Initial residual = 0.000512996, Final residual = 3.48052e-12, No Iterations 1
Time = 4.425s

smoothSolver:  Solving for T, Initial residual = 0.000512425, Final residual = 3.48283e-12, No Iterations 1
Time = 4.43s

smoothSolver:  Solving for T, Initial residual = 0.000511855, Final residual = 3.48514e-12, No Iterations 1
Time = 4.435s

smoothSolver:  Solving for T, Initial residual = 0.000511286, Final residual = 3.48747e-12, No Iterations 1
Time = 4.44s

smoothSolver:  Solving for T, Initial residual = 0.000510718, Final residual = 3.4898e-12, No Iterations 1
Time = 4.445s

smoothSolver:  Solving for T, Initial residual = 0.000510152, Final residual = 3.49215e-12, No Iterations 1
Time = 4.45s

smoothSolver:  Solving for T, Initial residual = 0.000509587, Final residual = 3.4945e-12, No Iterations 1
Time = 4.455s

smoothSolver:  Solving for T, Initial residual = 0.000509023, Final residual = 3.49686e-12, No Iterations 1
Time = 4.46s

smoothSolver:  Solving for T, Initial residual = 0.000508461, Final residual = 3.49923e-12, No Iterations 1
Time = 4.465s

smoothSolver:  Solving for T, Initial residual = 0.0005079, Final residual = 3.50161e-12, No Iterations 1
Time = 4.47s

smoothSolver:  Solving for T, Initial residual = 0.00050734, Final residual = 3.50399e-12, No Iterations 1
Time = 4.475s

smoothSolver:  Solving for T, Initial residual = 0.000506782, Final residual = 3.50639e-12, No Iterations 1
Time = 4.48s

smoothSolver:  Solving for T, Initial residual = 0.000506224, Final residual = 3.50879e-12, No Iterations 1
Time = 4.485s

smoothSolver:  Solving for T, Initial residual = 0.000505668, Final residual = 3.51121e-12, No Iterations 1
Time = 4.49s

smoothSolver:  Solving for T, Initial residual = 0.000505113, Final residual = 3.51362e-12, No Iterations 1
Time = 4.495s

smoothSolver:  Solving for T, Initial residual = 0.00050456, Final residual = 3.51605e-12, No Iterations 1
Time = 4.5s

smoothSolver:  Solving for T, Initial residual = 0.000504008, Final residual = 3.51849e-12, No Iterations 1
Time = 4.505s

smoothSolver:  Solving for T, Initial residual = 0.000503456, Final residual = 3.52093e-12, No Iterations 1
Time = 4.51s

smoothSolver:  Solving for T, Initial residual = 0.000502907, Final residual = 3.52339e-12, No Iterations 1
Time = 4.515s

smoothSolver:  Solving for T, Initial residual = 0.000502358, Final residual = 3.52585e-12, No Iterations 1
Time = 4.52s

smoothSolver:  Solving for T, Initial residual = 0.00050181, Final residual = 3.52832e-12, No Iterations 1
Time = 4.525s

smoothSolver:  Solving for T, Initial residual = 0.000501264, Final residual = 3.5308e-12, No Iterations 1
Time = 4.53s

smoothSolver:  Solving for T, Initial residual = 0.000500719, Final residual = 3.53328e-12, No Iterations 1
Time = 4.535s

smoothSolver:  Solving for T, Initial residual = 0.000500175, Final residual = 3.53578e-12, No Iterations 1
Time = 4.54s

smoothSolver:  Solving for T, Initial residual = 0.000499633, Final residual = 3.53828e-12, No Iterations 1
Time = 4.545s

smoothSolver:  Solving for T, Initial residual = 0.000499091, Final residual = 3.5408e-12, No Iterations 1
Time = 4.55s

smoothSolver:  Solving for T, Initial residual = 0.000498551, Final residual = 3.54332e-12, No Iterations 1
Time = 4.555s

smoothSolver:  Solving for T, Initial residual = 0.000498012, Final residual = 3.54585e-12, No Iterations 1
Time = 4.56s

smoothSolver:  Solving for T, Initial residual = 0.000497475, Final residual = 3.54838e-12, No Iterations 1
Time = 4.565s

smoothSolver:  Solving for T, Initial residual = 0.000496938, Final residual = 3.55093e-12, No Iterations 1
Time = 4.57s

smoothSolver:  Solving for T, Initial residual = 0.000496403, Final residual = 3.55349e-12, No Iterations 1
Time = 4.575s

smoothSolver:  Solving for T, Initial residual = 0.000495868, Final residual = 3.55604e-12, No Iterations 1
Time = 4.58s

smoothSolver:  Solving for T, Initial residual = 0.000495335, Final residual = 3.55862e-12, No Iterations 1
Time = 4.585s

smoothSolver:  Solving for T, Initial residual = 0.000494804, Final residual = 3.5612e-12, No Iterations 1
Time = 4.59s

smoothSolver:  Solving for T, Initial residual = 0.000494273, Final residual = 3.56378e-12, No Iterations 1
Time = 4.595s

smoothSolver:  Solving for T, Initial residual = 0.000493744, Final residual = 3.56638e-12, No Iterations 1
Time = 4.6s

smoothSolver:  Solving for T, Initial residual = 0.000493215, Final residual = 3.56898e-12, No Iterations 1
Time = 4.605s

smoothSolver:  Solving for T, Initial residual = 0.000492688, Final residual = 3.5716e-12, No Iterations 1
Time = 4.61s

smoothSolver:  Solving for T, Initial residual = 0.000492162, Final residual = 3.57422e-12, No Iterations 1
Time = 4.615s

smoothSolver:  Solving for T, Initial residual = 0.000491637, Final residual = 3.57684e-12, No Iterations 1
Time = 4.62s

smoothSolver:  Solving for T, Initial residual = 0.000491113, Final residual = 3.57948e-12, No Iterations 1
Time = 4.625s

smoothSolver:  Solving for T, Initial residual = 0.00049059, Final residual = 3.58212e-12, No Iterations 1
Time = 4.63s

smoothSolver:  Solving for T, Initial residual = 0.000490068, Final residual = 3.58477e-12, No Iterations 1
Time = 4.635s

smoothSolver:  Solving for T, Initial residual = 0.000489547, Final residual = 3.58742e-12, No Iterations 1
Time = 4.64s

smoothSolver:  Solving for T, Initial residual = 0.000489026, Final residual = 3.59008e-12, No Iterations 1
Time = 4.645s

smoothSolver:  Solving for T, Initial residual = 0.000488506, Final residual = 3.59275e-12, No Iterations 1
Time = 4.65s

smoothSolver:  Solving for T, Initial residual = 0.000487987, Final residual = 3.59542e-12, No Iterations 1
Time = 4.655s

smoothSolver:  Solving for T, Initial residual = 0.00048747, Final residual = 3.5981e-12, No Iterations 1
Time = 4.66s

smoothSolver:  Solving for T, Initial residual = 0.000486953, Final residual = 3.60079e-12, No Iterations 1
Time = 4.665s

smoothSolver:  Solving for T, Initial residual = 0.000486437, Final residual = 3.60348e-12, No Iterations 1
Time = 4.67s

smoothSolver:  Solving for T, Initial residual = 0.000485923, Final residual = 3.60619e-12, No Iterations 1
Time = 4.675s

smoothSolver:  Solving for T, Initial residual = 0.000485409, Final residual = 3.6089e-12, No Iterations 1
Time = 4.68s

smoothSolver:  Solving for T, Initial residual = 0.000484897, Final residual = 3.61161e-12, No Iterations 1
Time = 4.685s

smoothSolver:  Solving for T, Initial residual = 0.000484386, Final residual = 3.61434e-12, No Iterations 1
Time = 4.69s

smoothSolver:  Solving for T, Initial residual = 0.000483875, Final residual = 3.61707e-12, No Iterations 1
Time = 4.695s

smoothSolver:  Solving for T, Initial residual = 0.000483366, Final residual = 3.61982e-12, No Iterations 1
Time = 4.7s

smoothSolver:  Solving for T, Initial residual = 0.000482858, Final residual = 3.62257e-12, No Iterations 1
Time = 4.705s

smoothSolver:  Solving for T, Initial residual = 0.000482351, Final residual = 3.62533e-12, No Iterations 1
Time = 4.71s

smoothSolver:  Solving for T, Initial residual = 0.000481845, Final residual = 3.62809e-12, No Iterations 1
Time = 4.715s

smoothSolver:  Solving for T, Initial residual = 0.000481341, Final residual = 3.63087e-12, No Iterations 1
Time = 4.72s

smoothSolver:  Solving for T, Initial residual = 0.000480837, Final residual = 3.63365e-12, No Iterations 1
Time = 4.725s

smoothSolver:  Solving for T, Initial residual = 0.000480334, Final residual = 3.63644e-12, No Iterations 1
Time = 4.73s

smoothSolver:  Solving for T, Initial residual = 0.000479832, Final residual = 3.63924e-12, No Iterations 1
Time = 4.735s

smoothSolver:  Solving for T, Initial residual = 0.000479332, Final residual = 3.64204e-12, No Iterations 1
Time = 4.74s

smoothSolver:  Solving for T, Initial residual = 0.000478832, Final residual = 3.64486e-12, No Iterations 1
Time = 4.745s

smoothSolver:  Solving for T, Initial residual = 0.000478334, Final residual = 3.64768e-12, No Iterations 1
Time = 4.75s

smoothSolver:  Solving for T, Initial residual = 0.000477836, Final residual = 3.65051e-12, No Iterations 1
Time = 4.755s

smoothSolver:  Solving for T, Initial residual = 0.00047734, Final residual = 3.65335e-12, No Iterations 1
Time = 4.76s

smoothSolver:  Solving for T, Initial residual = 0.000476845, Final residual = 3.65619e-12, No Iterations 1
Time = 4.765s

smoothSolver:  Solving for T, Initial residual = 0.00047635, Final residual = 3.65905e-12, No Iterations 1
Time = 4.77s

smoothSolver:  Solving for T, Initial residual = 0.000475857, Final residual = 3.66191e-12, No Iterations 1
Time = 4.775s

smoothSolver:  Solving for T, Initial residual = 0.000475365, Final residual = 3.66478e-12, No Iterations 1
Time = 4.78s

smoothSolver:  Solving for T, Initial residual = 0.000474874, Final residual = 3.66765e-12, No Iterations 1
Time = 4.785s

smoothSolver:  Solving for T, Initial residual = 0.000474383, Final residual = 3.67054e-12, No Iterations 1
Time = 4.79s

smoothSolver:  Solving for T, Initial residual = 0.000473894, Final residual = 3.67343e-12, No Iterations 1
Time = 4.795s

smoothSolver:  Solving for T, Initial residual = 0.000473406, Final residual = 3.67633e-12, No Iterations 1
Time = 4.8s

smoothSolver:  Solving for T, Initial residual = 0.000472919, Final residual = 3.67924e-12, No Iterations 1
Time = 4.805s

smoothSolver:  Solving for T, Initial residual = 0.000472433, Final residual = 3.68216e-12, No Iterations 1
Time = 4.81s

smoothSolver:  Solving for T, Initial residual = 0.000471948, Final residual = 3.68508e-12, No Iterations 1
Time = 4.815s

smoothSolver:  Solving for T, Initial residual = 0.000471464, Final residual = 3.68801e-12, No Iterations 1
Time = 4.82s

smoothSolver:  Solving for T, Initial residual = 0.000470981, Final residual = 3.69095e-12, No Iterations 1
Time = 4.825s

smoothSolver:  Solving for T, Initial residual = 0.000470499, Final residual = 3.6939e-12, No Iterations 1
Time = 4.83s

smoothSolver:  Solving for T, Initial residual = 0.000470018, Final residual = 3.69685e-12, No Iterations 1
Time = 4.835s

smoothSolver:  Solving for T, Initial residual = 0.000469538, Final residual = 3.69981e-12, No Iterations 1
Time = 4.84s

smoothSolver:  Solving for T, Initial residual = 0.000469059, Final residual = 3.70279e-12, No Iterations 1
Time = 4.845s

smoothSolver:  Solving for T, Initial residual = 0.000468581, Final residual = 3.70577e-12, No Iterations 1
Time = 4.85s

smoothSolver:  Solving for T, Initial residual = 0.000468104, Final residual = 3.70875e-12, No Iterations 1
Time = 4.855s

smoothSolver:  Solving for T, Initial residual = 0.000467628, Final residual = 3.71175e-12, No Iterations 1
Time = 4.86s

smoothSolver:  Solving for T, Initial residual = 0.000467153, Final residual = 3.71475e-12, No Iterations 1
Time = 4.865s

smoothSolver:  Solving for T, Initial residual = 0.000466679, Final residual = 3.71776e-12, No Iterations 1
Time = 4.87s

smoothSolver:  Solving for T, Initial residual = 0.000466206, Final residual = 3.72078e-12, No Iterations 1
Time = 4.875s

smoothSolver:  Solving for T, Initial residual = 0.000465734, Final residual = 3.7238e-12, No Iterations 1
Time = 4.88s

smoothSolver:  Solving for T, Initial residual = 0.000465263, Final residual = 3.72684e-12, No Iterations 1
Time = 4.885s

smoothSolver:  Solving for T, Initial residual = 0.000464793, Final residual = 3.72988e-12, No Iterations 1
Time = 4.89s

smoothSolver:  Solving for T, Initial residual = 0.000464324, Final residual = 3.73293e-12, No Iterations 1
Time = 4.895s

smoothSolver:  Solving for T, Initial residual = 0.000463856, Final residual = 3.73599e-12, No Iterations 1
Time = 4.9s

smoothSolver:  Solving for T, Initial residual = 0.000463389, Final residual = 3.73905e-12, No Iterations 1
Time = 4.905s

smoothSolver:  Solving for T, Initial residual = 0.000462922, Final residual = 3.74212e-12, No Iterations 1
Time = 4.91s

smoothSolver:  Solving for T, Initial residual = 0.000462457, Final residual = 3.7452e-12, No Iterations 1
Time = 4.915s

smoothSolver:  Solving for T, Initial residual = 0.000461993, Final residual = 3.74829e-12, No Iterations 1
Time = 4.92s

smoothSolver:  Solving for T, Initial residual = 0.00046153, Final residual = 3.75139e-12, No Iterations 1
Time = 4.925s

smoothSolver:  Solving for T, Initial residual = 0.000461067, Final residual = 3.75449e-12, No Iterations 1
Time = 4.93s

smoothSolver:  Solving for T, Initial residual = 0.000460606, Final residual = 3.7576e-12, No Iterations 1
Time = 4.935s

smoothSolver:  Solving for T, Initial residual = 0.000460146, Final residual = 3.76072e-12, No Iterations 1
Time = 4.94s

smoothSolver:  Solving for T, Initial residual = 0.000459686, Final residual = 3.76385e-12, No Iterations 1
Time = 4.945s

smoothSolver:  Solving for T, Initial residual = 0.000459228, Final residual = 3.76698e-12, No Iterations 1
Time = 4.95s

smoothSolver:  Solving for T, Initial residual = 0.00045877, Final residual = 3.77013e-12, No Iterations 1
Time = 4.955s

smoothSolver:  Solving for T, Initial residual = 0.000458313, Final residual = 3.77327e-12, No Iterations 1
Time = 4.96s

smoothSolver:  Solving for T, Initial residual = 0.000457858, Final residual = 3.77643e-12, No Iterations 1
Time = 4.965s

smoothSolver:  Solving for T, Initial residual = 0.000457403, Final residual = 3.77959e-12, No Iterations 1
Time = 4.97s

smoothSolver:  Solving for T, Initial residual = 0.000456949, Final residual = 3.78277e-12, No Iterations 1
Time = 4.975s

smoothSolver:  Solving for T, Initial residual = 0.000456496, Final residual = 3.78595e-12, No Iterations 1
Time = 4.98s

smoothSolver:  Solving for T, Initial residual = 0.000456044, Final residual = 3.78914e-12, No Iterations 1
Time = 4.985s

smoothSolver:  Solving for T, Initial residual = 0.000455593, Final residual = 3.79233e-12, No Iterations 1
Time = 4.99s

smoothSolver:  Solving for T, Initial residual = 0.000455143, Final residual = 3.79554e-12, No Iterations 1
Time = 4.995s

smoothSolver:  Solving for T, Initial residual = 0.000454694, Final residual = 3.79875e-12, No Iterations 1
Time = 5s

smoothSolver:  Solving for T, Initial residual = 0.000454246, Final residual = 3.80196e-12, No Iterations 1
End

[0;32m[13:49:32] Max concentration: 8.32715e-27 for pattern_20_upwind[0m
